*Sibcircuit Definition
.subckt loop 1 2 3 4
l1 1 2 1e-05
lg1 1 0 1e-05
l2 2 3 1e-05
lg2 2 0 1e-05
l3 3 4 1e-05
lg3 3 0 1e-05
l4 4 1 1e-05
lg4 4 0 1e-05
.ends

* Lattice Cite Definitions
x1x1ya x1x1ya1 x1x1ya2 x1x1ya3 x1x1ya4 loop
x1x1yb x1x1yb1 x1x1yb2 x1x1yb3 x1x1yb4 loop
x1x2ya x1x2ya1 x1x2ya2 x1x2ya3 x1x2ya4 loop
x1x2yb x1x2yb1 x1x2yb2 x1x2yb3 x1x2yb4 loop
x1x3ya x1x3ya1 x1x3ya2 x1x3ya3 x1x3ya4 loop
x1x3yb x1x3yb1 x1x3yb2 x1x3yb3 x1x3yb4 loop
x1x4ya x1x4ya1 x1x4ya2 x1x4ya3 x1x4ya4 loop
x1x4yb x1x4yb1 x1x4yb2 x1x4yb3 x1x4yb4 loop
x1x5ya x1x5ya1 x1x5ya2 x1x5ya3 x1x5ya4 loop
x1x5yb x1x5yb1 x1x5yb2 x1x5yb3 x1x5yb4 loop
x1x6ya x1x6ya1 x1x6ya2 x1x6ya3 x1x6ya4 loop
x1x6yb x1x6yb1 x1x6yb2 x1x6yb3 x1x6yb4 loop
x1x7ya x1x7ya1 x1x7ya2 x1x7ya3 x1x7ya4 loop
x1x7yb x1x7yb1 x1x7yb2 x1x7yb3 x1x7yb4 loop
x1x8ya x1x8ya1 x1x8ya2 x1x8ya3 x1x8ya4 loop
x1x8yb x1x8yb1 x1x8yb2 x1x8yb3 x1x8yb4 loop
x1x9ya x1x9ya1 x1x9ya2 x1x9ya3 x1x9ya4 loop
x1x9yb x1x9yb1 x1x9yb2 x1x9yb3 x1x9yb4 loop
x1x10ya x1x10ya1 x1x10ya2 x1x10ya3 x1x10ya4 loop
x1x10yb x1x10yb1 x1x10yb2 x1x10yb3 x1x10yb4 loop
x2x1ya x2x1ya1 x2x1ya2 x2x1ya3 x2x1ya4 loop
x2x1yb x2x1yb1 x2x1yb2 x2x1yb3 x2x1yb4 loop
x2x2ya x2x2ya1 x2x2ya2 x2x2ya3 x2x2ya4 loop
x2x2yb x2x2yb1 x2x2yb2 x2x2yb3 x2x2yb4 loop
x2x3ya x2x3ya1 x2x3ya2 x2x3ya3 x2x3ya4 loop
x2x3yb x2x3yb1 x2x3yb2 x2x3yb3 x2x3yb4 loop
x2x4ya x2x4ya1 x2x4ya2 x2x4ya3 x2x4ya4 loop
x2x4yb x2x4yb1 x2x4yb2 x2x4yb3 x2x4yb4 loop
x2x5ya x2x5ya1 x2x5ya2 x2x5ya3 x2x5ya4 loop
x2x5yb x2x5yb1 x2x5yb2 x2x5yb3 x2x5yb4 loop
x2x6ya x2x6ya1 x2x6ya2 x2x6ya3 x2x6ya4 loop
x2x6yb x2x6yb1 x2x6yb2 x2x6yb3 x2x6yb4 loop
x2x7ya x2x7ya1 x2x7ya2 x2x7ya3 x2x7ya4 loop
x2x7yb x2x7yb1 x2x7yb2 x2x7yb3 x2x7yb4 loop
x2x8ya x2x8ya1 x2x8ya2 x2x8ya3 x2x8ya4 loop
x2x8yb x2x8yb1 x2x8yb2 x2x8yb3 x2x8yb4 loop
x2x9ya x2x9ya1 x2x9ya2 x2x9ya3 x2x9ya4 loop
x2x9yb x2x9yb1 x2x9yb2 x2x9yb3 x2x9yb4 loop
x2x10ya x2x10ya1 x2x10ya2 x2x10ya3 x2x10ya4 loop
x2x10yb x2x10yb1 x2x10yb2 x2x10yb3 x2x10yb4 loop
x3x1ya x3x1ya1 x3x1ya2 x3x1ya3 x3x1ya4 loop
x3x1yb x3x1yb1 x3x1yb2 x3x1yb3 x3x1yb4 loop
x3x2ya x3x2ya1 x3x2ya2 x3x2ya3 x3x2ya4 loop
x3x2yb x3x2yb1 x3x2yb2 x3x2yb3 x3x2yb4 loop
x3x3ya x3x3ya1 x3x3ya2 x3x3ya3 x3x3ya4 loop
x3x3yb x3x3yb1 x3x3yb2 x3x3yb3 x3x3yb4 loop
x3x4ya x3x4ya1 x3x4ya2 x3x4ya3 x3x4ya4 loop
x3x4yb x3x4yb1 x3x4yb2 x3x4yb3 x3x4yb4 loop
x3x5ya x3x5ya1 x3x5ya2 x3x5ya3 x3x5ya4 loop
x3x5yb x3x5yb1 x3x5yb2 x3x5yb3 x3x5yb4 loop
x3x6ya x3x6ya1 x3x6ya2 x3x6ya3 x3x6ya4 loop
x3x6yb x3x6yb1 x3x6yb2 x3x6yb3 x3x6yb4 loop
x3x7ya x3x7ya1 x3x7ya2 x3x7ya3 x3x7ya4 loop
x3x7yb x3x7yb1 x3x7yb2 x3x7yb3 x3x7yb4 loop
x3x8ya x3x8ya1 x3x8ya2 x3x8ya3 x3x8ya4 loop
x3x8yb x3x8yb1 x3x8yb2 x3x8yb3 x3x8yb4 loop
x3x9ya x3x9ya1 x3x9ya2 x3x9ya3 x3x9ya4 loop
x3x9yb x3x9yb1 x3x9yb2 x3x9yb3 x3x9yb4 loop
x3x10ya x3x10ya1 x3x10ya2 x3x10ya3 x3x10ya4 loop
x3x10yb x3x10yb1 x3x10yb2 x3x10yb3 x3x10yb4 loop
x4x1ya x4x1ya1 x4x1ya2 x4x1ya3 x4x1ya4 loop
x4x1yb x4x1yb1 x4x1yb2 x4x1yb3 x4x1yb4 loop
x4x2ya x4x2ya1 x4x2ya2 x4x2ya3 x4x2ya4 loop
x4x2yb x4x2yb1 x4x2yb2 x4x2yb3 x4x2yb4 loop
x4x3ya x4x3ya1 x4x3ya2 x4x3ya3 x4x3ya4 loop
x4x3yb x4x3yb1 x4x3yb2 x4x3yb3 x4x3yb4 loop
x4x4ya x4x4ya1 x4x4ya2 x4x4ya3 x4x4ya4 loop
x4x4yb x4x4yb1 x4x4yb2 x4x4yb3 x4x4yb4 loop
x4x5ya x4x5ya1 x4x5ya2 x4x5ya3 x4x5ya4 loop
x4x5yb x4x5yb1 x4x5yb2 x4x5yb3 x4x5yb4 loop
x4x6ya x4x6ya1 x4x6ya2 x4x6ya3 x4x6ya4 loop
x4x6yb x4x6yb1 x4x6yb2 x4x6yb3 x4x6yb4 loop
x4x7ya x4x7ya1 x4x7ya2 x4x7ya3 x4x7ya4 loop
x4x7yb x4x7yb1 x4x7yb2 x4x7yb3 x4x7yb4 loop
x4x8ya x4x8ya1 x4x8ya2 x4x8ya3 x4x8ya4 loop
x4x8yb x4x8yb1 x4x8yb2 x4x8yb3 x4x8yb4 loop
x4x9ya x4x9ya1 x4x9ya2 x4x9ya3 x4x9ya4 loop
x4x9yb x4x9yb1 x4x9yb2 x4x9yb3 x4x9yb4 loop
x4x10ya x4x10ya1 x4x10ya2 x4x10ya3 x4x10ya4 loop
x4x10yb x4x10yb1 x4x10yb2 x4x10yb3 x4x10yb4 loop
x5x1ya x5x1ya1 x5x1ya2 x5x1ya3 x5x1ya4 loop
x5x1yb x5x1yb1 x5x1yb2 x5x1yb3 x5x1yb4 loop
x5x2ya x5x2ya1 x5x2ya2 x5x2ya3 x5x2ya4 loop
x5x2yb x5x2yb1 x5x2yb2 x5x2yb3 x5x2yb4 loop
x5x3ya x5x3ya1 x5x3ya2 x5x3ya3 x5x3ya4 loop
x5x3yb x5x3yb1 x5x3yb2 x5x3yb3 x5x3yb4 loop
x5x4ya x5x4ya1 x5x4ya2 x5x4ya3 x5x4ya4 loop
x5x4yb x5x4yb1 x5x4yb2 x5x4yb3 x5x4yb4 loop
x5x5ya x5x5ya1 x5x5ya2 x5x5ya3 x5x5ya4 loop
x5x5yb x5x5yb1 x5x5yb2 x5x5yb3 x5x5yb4 loop
x5x6ya x5x6ya1 x5x6ya2 x5x6ya3 x5x6ya4 loop
x5x6yb x5x6yb1 x5x6yb2 x5x6yb3 x5x6yb4 loop
x5x7ya x5x7ya1 x5x7ya2 x5x7ya3 x5x7ya4 loop
x5x7yb x5x7yb1 x5x7yb2 x5x7yb3 x5x7yb4 loop
x5x8ya x5x8ya1 x5x8ya2 x5x8ya3 x5x8ya4 loop
x5x8yb x5x8yb1 x5x8yb2 x5x8yb3 x5x8yb4 loop
x5x9ya x5x9ya1 x5x9ya2 x5x9ya3 x5x9ya4 loop
x5x9yb x5x9yb1 x5x9yb2 x5x9yb3 x5x9yb4 loop
x5x10ya x5x10ya1 x5x10ya2 x5x10ya3 x5x10ya4 loop
x5x10yb x5x10yb1 x5x10yb2 x5x10yb3 x5x10yb4 loop
x6x1ya x6x1ya1 x6x1ya2 x6x1ya3 x6x1ya4 loop
x6x1yb x6x1yb1 x6x1yb2 x6x1yb3 x6x1yb4 loop
x6x2ya x6x2ya1 x6x2ya2 x6x2ya3 x6x2ya4 loop
x6x2yb x6x2yb1 x6x2yb2 x6x2yb3 x6x2yb4 loop
x6x3ya x6x3ya1 x6x3ya2 x6x3ya3 x6x3ya4 loop
x6x3yb x6x3yb1 x6x3yb2 x6x3yb3 x6x3yb4 loop
x6x4ya x6x4ya1 x6x4ya2 x6x4ya3 x6x4ya4 loop
x6x4yb x6x4yb1 x6x4yb2 x6x4yb3 x6x4yb4 loop
x6x5ya x6x5ya1 x6x5ya2 x6x5ya3 x6x5ya4 loop
x6x5yb x6x5yb1 x6x5yb2 x6x5yb3 x6x5yb4 loop
x6x6ya x6x6ya1 x6x6ya2 x6x6ya3 x6x6ya4 loop
x6x6yb x6x6yb1 x6x6yb2 x6x6yb3 x6x6yb4 loop
x6x7ya x6x7ya1 x6x7ya2 x6x7ya3 x6x7ya4 loop
x6x7yb x6x7yb1 x6x7yb2 x6x7yb3 x6x7yb4 loop
x6x8ya x6x8ya1 x6x8ya2 x6x8ya3 x6x8ya4 loop
x6x8yb x6x8yb1 x6x8yb2 x6x8yb3 x6x8yb4 loop
x6x9ya x6x9ya1 x6x9ya2 x6x9ya3 x6x9ya4 loop
x6x9yb x6x9yb1 x6x9yb2 x6x9yb3 x6x9yb4 loop
x6x10ya x6x10ya1 x6x10ya2 x6x10ya3 x6x10ya4 loop
x6x10yb x6x10yb1 x6x10yb2 x6x10yb3 x6x10yb4 loop
x7x1ya x7x1ya1 x7x1ya2 x7x1ya3 x7x1ya4 loop
x7x1yb x7x1yb1 x7x1yb2 x7x1yb3 x7x1yb4 loop
x7x2ya x7x2ya1 x7x2ya2 x7x2ya3 x7x2ya4 loop
x7x2yb x7x2yb1 x7x2yb2 x7x2yb3 x7x2yb4 loop
x7x3ya x7x3ya1 x7x3ya2 x7x3ya3 x7x3ya4 loop
x7x3yb x7x3yb1 x7x3yb2 x7x3yb3 x7x3yb4 loop
x7x4ya x7x4ya1 x7x4ya2 x7x4ya3 x7x4ya4 loop
x7x4yb x7x4yb1 x7x4yb2 x7x4yb3 x7x4yb4 loop
x7x5ya x7x5ya1 x7x5ya2 x7x5ya3 x7x5ya4 loop
x7x5yb x7x5yb1 x7x5yb2 x7x5yb3 x7x5yb4 loop
x7x6ya x7x6ya1 x7x6ya2 x7x6ya3 x7x6ya4 loop
x7x6yb x7x6yb1 x7x6yb2 x7x6yb3 x7x6yb4 loop
x7x7ya x7x7ya1 x7x7ya2 x7x7ya3 x7x7ya4 loop
x7x7yb x7x7yb1 x7x7yb2 x7x7yb3 x7x7yb4 loop
x7x8ya x7x8ya1 x7x8ya2 x7x8ya3 x7x8ya4 loop
x7x8yb x7x8yb1 x7x8yb2 x7x8yb3 x7x8yb4 loop
x7x9ya x7x9ya1 x7x9ya2 x7x9ya3 x7x9ya4 loop
x7x9yb x7x9yb1 x7x9yb2 x7x9yb3 x7x9yb4 loop
x7x10ya x7x10ya1 x7x10ya2 x7x10ya3 x7x10ya4 loop
x7x10yb x7x10yb1 x7x10yb2 x7x10yb3 x7x10yb4 loop
x8x1ya x8x1ya1 x8x1ya2 x8x1ya3 x8x1ya4 loop
x8x1yb x8x1yb1 x8x1yb2 x8x1yb3 x8x1yb4 loop
x8x2ya x8x2ya1 x8x2ya2 x8x2ya3 x8x2ya4 loop
x8x2yb x8x2yb1 x8x2yb2 x8x2yb3 x8x2yb4 loop
x8x3ya x8x3ya1 x8x3ya2 x8x3ya3 x8x3ya4 loop
x8x3yb x8x3yb1 x8x3yb2 x8x3yb3 x8x3yb4 loop
x8x4ya x8x4ya1 x8x4ya2 x8x4ya3 x8x4ya4 loop
x8x4yb x8x4yb1 x8x4yb2 x8x4yb3 x8x4yb4 loop
x8x5ya x8x5ya1 x8x5ya2 x8x5ya3 x8x5ya4 loop
x8x5yb x8x5yb1 x8x5yb2 x8x5yb3 x8x5yb4 loop
x8x6ya x8x6ya1 x8x6ya2 x8x6ya3 x8x6ya4 loop
x8x6yb x8x6yb1 x8x6yb2 x8x6yb3 x8x6yb4 loop
x8x7ya x8x7ya1 x8x7ya2 x8x7ya3 x8x7ya4 loop
x8x7yb x8x7yb1 x8x7yb2 x8x7yb3 x8x7yb4 loop
x8x8ya x8x8ya1 x8x8ya2 x8x8ya3 x8x8ya4 loop
x8x8yb x8x8yb1 x8x8yb2 x8x8yb3 x8x8yb4 loop
x8x9ya x8x9ya1 x8x9ya2 x8x9ya3 x8x9ya4 loop
x8x9yb x8x9yb1 x8x9yb2 x8x9yb3 x8x9yb4 loop
x8x10ya x8x10ya1 x8x10ya2 x8x10ya3 x8x10ya4 loop
x8x10yb x8x10yb1 x8x10yb2 x8x10yb3 x8x10yb4 loop
x9x1ya x9x1ya1 x9x1ya2 x9x1ya3 x9x1ya4 loop
x9x1yb x9x1yb1 x9x1yb2 x9x1yb3 x9x1yb4 loop
x9x2ya x9x2ya1 x9x2ya2 x9x2ya3 x9x2ya4 loop
x9x2yb x9x2yb1 x9x2yb2 x9x2yb3 x9x2yb4 loop
x9x3ya x9x3ya1 x9x3ya2 x9x3ya3 x9x3ya4 loop
x9x3yb x9x3yb1 x9x3yb2 x9x3yb3 x9x3yb4 loop
x9x4ya x9x4ya1 x9x4ya2 x9x4ya3 x9x4ya4 loop
x9x4yb x9x4yb1 x9x4yb2 x9x4yb3 x9x4yb4 loop
x9x5ya x9x5ya1 x9x5ya2 x9x5ya3 x9x5ya4 loop
x9x5yb x9x5yb1 x9x5yb2 x9x5yb3 x9x5yb4 loop
x9x6ya x9x6ya1 x9x6ya2 x9x6ya3 x9x6ya4 loop
x9x6yb x9x6yb1 x9x6yb2 x9x6yb3 x9x6yb4 loop
x9x7ya x9x7ya1 x9x7ya2 x9x7ya3 x9x7ya4 loop
x9x7yb x9x7yb1 x9x7yb2 x9x7yb3 x9x7yb4 loop
x9x8ya x9x8ya1 x9x8ya2 x9x8ya3 x9x8ya4 loop
x9x8yb x9x8yb1 x9x8yb2 x9x8yb3 x9x8yb4 loop
x9x9ya x9x9ya1 x9x9ya2 x9x9ya3 x9x9ya4 loop
x9x9yb x9x9yb1 x9x9yb2 x9x9yb3 x9x9yb4 loop
x9x10ya x9x10ya1 x9x10ya2 x9x10ya3 x9x10ya4 loop
x9x10yb x9x10yb1 x9x10yb2 x9x10yb3 x9x10yb4 loop
x10x1ya x10x1ya1 x10x1ya2 x10x1ya3 x10x1ya4 loop
x10x1yb x10x1yb1 x10x1yb2 x10x1yb3 x10x1yb4 loop
x10x2ya x10x2ya1 x10x2ya2 x10x2ya3 x10x2ya4 loop
x10x2yb x10x2yb1 x10x2yb2 x10x2yb3 x10x2yb4 loop
x10x3ya x10x3ya1 x10x3ya2 x10x3ya3 x10x3ya4 loop
x10x3yb x10x3yb1 x10x3yb2 x10x3yb3 x10x3yb4 loop
x10x4ya x10x4ya1 x10x4ya2 x10x4ya3 x10x4ya4 loop
x10x4yb x10x4yb1 x10x4yb2 x10x4yb3 x10x4yb4 loop
x10x5ya x10x5ya1 x10x5ya2 x10x5ya3 x10x5ya4 loop
x10x5yb x10x5yb1 x10x5yb2 x10x5yb3 x10x5yb4 loop
x10x6ya x10x6ya1 x10x6ya2 x10x6ya3 x10x6ya4 loop
x10x6yb x10x6yb1 x10x6yb2 x10x6yb3 x10x6yb4 loop
x10x7ya x10x7ya1 x10x7ya2 x10x7ya3 x10x7ya4 loop
x10x7yb x10x7yb1 x10x7yb2 x10x7yb3 x10x7yb4 loop
x10x8ya x10x8ya1 x10x8ya2 x10x8ya3 x10x8ya4 loop
x10x8yb x10x8yb1 x10x8yb2 x10x8yb3 x10x8yb4 loop
x10x9ya x10x9ya1 x10x9ya2 x10x9ya3 x10x9ya4 loop
x10x9yb x10x9yb1 x10x9yb2 x10x9yb3 x10x9yb4 loop
x10x10ya x10x10ya1 x10x10ya2 x10x10ya3 x10x10ya4 loop
x10x10yb x10x10yb1 x10x10yb2 x10x10yb3 x10x10yb4 loop

*Hopping connection between (1,1) and (1,1)
Cx1x1yax1x1yb0 x1x1ya1 x1x1yb3 6.999999999999999e-08 Rser=0 Rpar=0
Cx1x1yax1x1yb1 x1x1ya2 x1x1yb4 6.999999999999999e-08 Rser=0 Rpar=0
Cx1x1yax1x1yb2 x1x1ya3 x1x1yb1 6.999999999999999e-08 Rser=0 Rpar=0
Cx1x1yax1x1yb3 x1x1ya4 x1x1yb2 6.999999999999999e-08 Rser=0 Rpar=0

*Hopping connection between (1,1) and (2,1)
Cx1x1yax2x1yb0 x1x1ya1 x2x1yb1 5e-08 Rser=0 Rpar=0
Cx1x1yax2x1yb1 x1x1ya2 x2x1yb2 5e-08 Rser=0 Rpar=0
Cx1x1yax2x1yb2 x1x1ya3 x2x1yb3 5e-08 Rser=0 Rpar=0
Cx1x1yax2x1yb3 x1x1ya4 x2x1yb4 5e-08 Rser=0 Rpar=0

*Hopping connection between (1,1) and (2,1)
Cx1x1ybx2x1ya0 x1x1yb1 x2x1ya1 5e-08 Rser=0 Rpar=0
Cx1x1ybx2x1ya1 x1x1yb2 x2x1ya2 5e-08 Rser=0 Rpar=0
Cx1x1ybx2x1ya2 x1x1yb3 x2x1ya3 5e-08 Rser=0 Rpar=0
Cx1x1ybx2x1ya3 x1x1yb4 x2x1ya4 5e-08 Rser=0 Rpar=0

*Hopping connection between (1,1) and (2,1)
Cx1x1yax2x1ya0 x1x1ya1 x2x1ya2 5e-08 Rser=0 Rpar=0
Cx1x1yax2x1ya1 x1x1ya2 x2x1ya3 5e-08 Rser=0 Rpar=0
Cx1x1yax2x1ya2 x1x1ya3 x2x1ya4 5e-08 Rser=0 Rpar=0
Cx1x1yax2x1ya3 x1x1ya4 x2x1ya1 5e-08 Rser=0 Rpar=0

*Hopping connection between (1,1) and (2,1)
Cx1x1ybx2x1yb0 x1x1yb1 x2x1yb2 5e-08 Rser=0 Rpar=0
Cx1x1ybx2x1yb1 x1x1yb2 x2x1yb3 5e-08 Rser=0 Rpar=0
Cx1x1ybx2x1yb2 x1x1yb3 x2x1yb4 5e-08 Rser=0 Rpar=0
Cx1x1ybx2x1yb3 x1x1yb4 x2x1yb1 5e-08 Rser=0 Rpar=0

*Hopping connection between (1,1) and (1,2)
Cx1x1ybx1x2ya0 x1x1yb1 x1x2ya1 1e-07 Rser=0 Rpar=0
Cx1x1ybx1x2ya1 x1x1yb2 x1x2ya2 1e-07 Rser=0 Rpar=0
Cx1x1ybx1x2ya2 x1x1yb3 x1x2ya3 1e-07 Rser=0 Rpar=0
Cx1x1ybx1x2ya3 x1x1yb4 x1x2ya4 1e-07 Rser=0 Rpar=0

*Hopping connection between (2,1) and (2,1)
Cx2x1yax2x1yb0 x2x1ya1 x2x1yb3 6.999999999999999e-08 Rser=0 Rpar=0
Cx2x1yax2x1yb1 x2x1ya2 x2x1yb4 6.999999999999999e-08 Rser=0 Rpar=0
Cx2x1yax2x1yb2 x2x1ya3 x2x1yb1 6.999999999999999e-08 Rser=0 Rpar=0
Cx2x1yax2x1yb3 x2x1ya4 x2x1yb2 6.999999999999999e-08 Rser=0 Rpar=0

*Hopping connection between (2,1) and (3,1)
Cx2x1yax3x1yb0 x2x1ya1 x3x1yb1 5e-08 Rser=0 Rpar=0
Cx2x1yax3x1yb1 x2x1ya2 x3x1yb2 5e-08 Rser=0 Rpar=0
Cx2x1yax3x1yb2 x2x1ya3 x3x1yb3 5e-08 Rser=0 Rpar=0
Cx2x1yax3x1yb3 x2x1ya4 x3x1yb4 5e-08 Rser=0 Rpar=0

*Hopping connection between (2,1) and (3,1)
Cx2x1ybx3x1ya0 x2x1yb1 x3x1ya1 5e-08 Rser=0 Rpar=0
Cx2x1ybx3x1ya1 x2x1yb2 x3x1ya2 5e-08 Rser=0 Rpar=0
Cx2x1ybx3x1ya2 x2x1yb3 x3x1ya3 5e-08 Rser=0 Rpar=0
Cx2x1ybx3x1ya3 x2x1yb4 x3x1ya4 5e-08 Rser=0 Rpar=0

*Hopping connection between (2,1) and (3,1)
Cx2x1yax3x1ya0 x2x1ya1 x3x1ya2 5e-08 Rser=0 Rpar=0
Cx2x1yax3x1ya1 x2x1ya2 x3x1ya3 5e-08 Rser=0 Rpar=0
Cx2x1yax3x1ya2 x2x1ya3 x3x1ya4 5e-08 Rser=0 Rpar=0
Cx2x1yax3x1ya3 x2x1ya4 x3x1ya1 5e-08 Rser=0 Rpar=0

*Hopping connection between (2,1) and (3,1)
Cx2x1ybx3x1yb0 x2x1yb1 x3x1yb2 5e-08 Rser=0 Rpar=0
Cx2x1ybx3x1yb1 x2x1yb2 x3x1yb3 5e-08 Rser=0 Rpar=0
Cx2x1ybx3x1yb2 x2x1yb3 x3x1yb4 5e-08 Rser=0 Rpar=0
Cx2x1ybx3x1yb3 x2x1yb4 x3x1yb1 5e-08 Rser=0 Rpar=0

*Hopping connection between (2,1) and (2,2)
Cx2x1ybx2x2ya0 x2x1yb1 x2x2ya1 1e-07 Rser=0 Rpar=0
Cx2x1ybx2x2ya1 x2x1yb2 x2x2ya2 1e-07 Rser=0 Rpar=0
Cx2x1ybx2x2ya2 x2x1yb3 x2x2ya3 1e-07 Rser=0 Rpar=0
Cx2x1ybx2x2ya3 x2x1yb4 x2x2ya4 1e-07 Rser=0 Rpar=0

*Hopping connection between (3,1) and (3,1)
Cx3x1yax3x1yb0 x3x1ya1 x3x1yb3 6.999999999999999e-08 Rser=0 Rpar=0
Cx3x1yax3x1yb1 x3x1ya2 x3x1yb4 6.999999999999999e-08 Rser=0 Rpar=0
Cx3x1yax3x1yb2 x3x1ya3 x3x1yb1 6.999999999999999e-08 Rser=0 Rpar=0
Cx3x1yax3x1yb3 x3x1ya4 x3x1yb2 6.999999999999999e-08 Rser=0 Rpar=0

*Hopping connection between (3,1) and (4,1)
Cx3x1yax4x1yb0 x3x1ya1 x4x1yb1 5e-08 Rser=0 Rpar=0
Cx3x1yax4x1yb1 x3x1ya2 x4x1yb2 5e-08 Rser=0 Rpar=0
Cx3x1yax4x1yb2 x3x1ya3 x4x1yb3 5e-08 Rser=0 Rpar=0
Cx3x1yax4x1yb3 x3x1ya4 x4x1yb4 5e-08 Rser=0 Rpar=0

*Hopping connection between (3,1) and (4,1)
Cx3x1ybx4x1ya0 x3x1yb1 x4x1ya1 5e-08 Rser=0 Rpar=0
Cx3x1ybx4x1ya1 x3x1yb2 x4x1ya2 5e-08 Rser=0 Rpar=0
Cx3x1ybx4x1ya2 x3x1yb3 x4x1ya3 5e-08 Rser=0 Rpar=0
Cx3x1ybx4x1ya3 x3x1yb4 x4x1ya4 5e-08 Rser=0 Rpar=0

*Hopping connection between (3,1) and (4,1)
Cx3x1yax4x1ya0 x3x1ya1 x4x1ya2 5e-08 Rser=0 Rpar=0
Cx3x1yax4x1ya1 x3x1ya2 x4x1ya3 5e-08 Rser=0 Rpar=0
Cx3x1yax4x1ya2 x3x1ya3 x4x1ya4 5e-08 Rser=0 Rpar=0
Cx3x1yax4x1ya3 x3x1ya4 x4x1ya1 5e-08 Rser=0 Rpar=0

*Hopping connection between (3,1) and (4,1)
Cx3x1ybx4x1yb0 x3x1yb1 x4x1yb2 5e-08 Rser=0 Rpar=0
Cx3x1ybx4x1yb1 x3x1yb2 x4x1yb3 5e-08 Rser=0 Rpar=0
Cx3x1ybx4x1yb2 x3x1yb3 x4x1yb4 5e-08 Rser=0 Rpar=0
Cx3x1ybx4x1yb3 x3x1yb4 x4x1yb1 5e-08 Rser=0 Rpar=0

*Hopping connection between (3,1) and (3,2)
Cx3x1ybx3x2ya0 x3x1yb1 x3x2ya1 1e-07 Rser=0 Rpar=0
Cx3x1ybx3x2ya1 x3x1yb2 x3x2ya2 1e-07 Rser=0 Rpar=0
Cx3x1ybx3x2ya2 x3x1yb3 x3x2ya3 1e-07 Rser=0 Rpar=0
Cx3x1ybx3x2ya3 x3x1yb4 x3x2ya4 1e-07 Rser=0 Rpar=0

*Hopping connection between (4,1) and (4,1)
Cx4x1yax4x1yb0 x4x1ya1 x4x1yb3 6.999999999999999e-08 Rser=0 Rpar=0
Cx4x1yax4x1yb1 x4x1ya2 x4x1yb4 6.999999999999999e-08 Rser=0 Rpar=0
Cx4x1yax4x1yb2 x4x1ya3 x4x1yb1 6.999999999999999e-08 Rser=0 Rpar=0
Cx4x1yax4x1yb3 x4x1ya4 x4x1yb2 6.999999999999999e-08 Rser=0 Rpar=0

*Hopping connection between (4,1) and (5,1)
Cx4x1yax5x1yb0 x4x1ya1 x5x1yb1 5e-08 Rser=0 Rpar=0
Cx4x1yax5x1yb1 x4x1ya2 x5x1yb2 5e-08 Rser=0 Rpar=0
Cx4x1yax5x1yb2 x4x1ya3 x5x1yb3 5e-08 Rser=0 Rpar=0
Cx4x1yax5x1yb3 x4x1ya4 x5x1yb4 5e-08 Rser=0 Rpar=0

*Hopping connection between (4,1) and (5,1)
Cx4x1ybx5x1ya0 x4x1yb1 x5x1ya1 5e-08 Rser=0 Rpar=0
Cx4x1ybx5x1ya1 x4x1yb2 x5x1ya2 5e-08 Rser=0 Rpar=0
Cx4x1ybx5x1ya2 x4x1yb3 x5x1ya3 5e-08 Rser=0 Rpar=0
Cx4x1ybx5x1ya3 x4x1yb4 x5x1ya4 5e-08 Rser=0 Rpar=0

*Hopping connection between (4,1) and (5,1)
Cx4x1yax5x1ya0 x4x1ya1 x5x1ya2 5e-08 Rser=0 Rpar=0
Cx4x1yax5x1ya1 x4x1ya2 x5x1ya3 5e-08 Rser=0 Rpar=0
Cx4x1yax5x1ya2 x4x1ya3 x5x1ya4 5e-08 Rser=0 Rpar=0
Cx4x1yax5x1ya3 x4x1ya4 x5x1ya1 5e-08 Rser=0 Rpar=0

*Hopping connection between (4,1) and (5,1)
Cx4x1ybx5x1yb0 x4x1yb1 x5x1yb2 5e-08 Rser=0 Rpar=0
Cx4x1ybx5x1yb1 x4x1yb2 x5x1yb3 5e-08 Rser=0 Rpar=0
Cx4x1ybx5x1yb2 x4x1yb3 x5x1yb4 5e-08 Rser=0 Rpar=0
Cx4x1ybx5x1yb3 x4x1yb4 x5x1yb1 5e-08 Rser=0 Rpar=0

*Hopping connection between (4,1) and (4,2)
Cx4x1ybx4x2ya0 x4x1yb1 x4x2ya1 1e-07 Rser=0 Rpar=0
Cx4x1ybx4x2ya1 x4x1yb2 x4x2ya2 1e-07 Rser=0 Rpar=0
Cx4x1ybx4x2ya2 x4x1yb3 x4x2ya3 1e-07 Rser=0 Rpar=0
Cx4x1ybx4x2ya3 x4x1yb4 x4x2ya4 1e-07 Rser=0 Rpar=0

*Hopping connection between (5,1) and (5,1)
Cx5x1yax5x1yb0 x5x1ya1 x5x1yb3 6.999999999999999e-08 Rser=0 Rpar=0
Cx5x1yax5x1yb1 x5x1ya2 x5x1yb4 6.999999999999999e-08 Rser=0 Rpar=0
Cx5x1yax5x1yb2 x5x1ya3 x5x1yb1 6.999999999999999e-08 Rser=0 Rpar=0
Cx5x1yax5x1yb3 x5x1ya4 x5x1yb2 6.999999999999999e-08 Rser=0 Rpar=0

*Hopping connection between (5,1) and (6,1)
Cx5x1yax6x1yb0 x5x1ya1 x6x1yb1 5e-08 Rser=0 Rpar=0
Cx5x1yax6x1yb1 x5x1ya2 x6x1yb2 5e-08 Rser=0 Rpar=0
Cx5x1yax6x1yb2 x5x1ya3 x6x1yb3 5e-08 Rser=0 Rpar=0
Cx5x1yax6x1yb3 x5x1ya4 x6x1yb4 5e-08 Rser=0 Rpar=0

*Hopping connection between (5,1) and (6,1)
Cx5x1ybx6x1ya0 x5x1yb1 x6x1ya1 5e-08 Rser=0 Rpar=0
Cx5x1ybx6x1ya1 x5x1yb2 x6x1ya2 5e-08 Rser=0 Rpar=0
Cx5x1ybx6x1ya2 x5x1yb3 x6x1ya3 5e-08 Rser=0 Rpar=0
Cx5x1ybx6x1ya3 x5x1yb4 x6x1ya4 5e-08 Rser=0 Rpar=0

*Hopping connection between (5,1) and (6,1)
Cx5x1yax6x1ya0 x5x1ya1 x6x1ya2 5e-08 Rser=0 Rpar=0
Cx5x1yax6x1ya1 x5x1ya2 x6x1ya3 5e-08 Rser=0 Rpar=0
Cx5x1yax6x1ya2 x5x1ya3 x6x1ya4 5e-08 Rser=0 Rpar=0
Cx5x1yax6x1ya3 x5x1ya4 x6x1ya1 5e-08 Rser=0 Rpar=0

*Hopping connection between (5,1) and (6,1)
Cx5x1ybx6x1yb0 x5x1yb1 x6x1yb2 5e-08 Rser=0 Rpar=0
Cx5x1ybx6x1yb1 x5x1yb2 x6x1yb3 5e-08 Rser=0 Rpar=0
Cx5x1ybx6x1yb2 x5x1yb3 x6x1yb4 5e-08 Rser=0 Rpar=0
Cx5x1ybx6x1yb3 x5x1yb4 x6x1yb1 5e-08 Rser=0 Rpar=0

*Hopping connection between (5,1) and (5,2)
Cx5x1ybx5x2ya0 x5x1yb1 x5x2ya1 1e-07 Rser=0 Rpar=0
Cx5x1ybx5x2ya1 x5x1yb2 x5x2ya2 1e-07 Rser=0 Rpar=0
Cx5x1ybx5x2ya2 x5x1yb3 x5x2ya3 1e-07 Rser=0 Rpar=0
Cx5x1ybx5x2ya3 x5x1yb4 x5x2ya4 1e-07 Rser=0 Rpar=0

*Hopping connection between (6,1) and (6,1)
Cx6x1yax6x1yb0 x6x1ya1 x6x1yb3 6.999999999999999e-08 Rser=0 Rpar=0
Cx6x1yax6x1yb1 x6x1ya2 x6x1yb4 6.999999999999999e-08 Rser=0 Rpar=0
Cx6x1yax6x1yb2 x6x1ya3 x6x1yb1 6.999999999999999e-08 Rser=0 Rpar=0
Cx6x1yax6x1yb3 x6x1ya4 x6x1yb2 6.999999999999999e-08 Rser=0 Rpar=0

*Hopping connection between (6,1) and (7,1)
Cx6x1yax7x1yb0 x6x1ya1 x7x1yb1 5e-08 Rser=0 Rpar=0
Cx6x1yax7x1yb1 x6x1ya2 x7x1yb2 5e-08 Rser=0 Rpar=0
Cx6x1yax7x1yb2 x6x1ya3 x7x1yb3 5e-08 Rser=0 Rpar=0
Cx6x1yax7x1yb3 x6x1ya4 x7x1yb4 5e-08 Rser=0 Rpar=0

*Hopping connection between (6,1) and (7,1)
Cx6x1ybx7x1ya0 x6x1yb1 x7x1ya1 5e-08 Rser=0 Rpar=0
Cx6x1ybx7x1ya1 x6x1yb2 x7x1ya2 5e-08 Rser=0 Rpar=0
Cx6x1ybx7x1ya2 x6x1yb3 x7x1ya3 5e-08 Rser=0 Rpar=0
Cx6x1ybx7x1ya3 x6x1yb4 x7x1ya4 5e-08 Rser=0 Rpar=0

*Hopping connection between (6,1) and (7,1)
Cx6x1yax7x1ya0 x6x1ya1 x7x1ya2 5e-08 Rser=0 Rpar=0
Cx6x1yax7x1ya1 x6x1ya2 x7x1ya3 5e-08 Rser=0 Rpar=0
Cx6x1yax7x1ya2 x6x1ya3 x7x1ya4 5e-08 Rser=0 Rpar=0
Cx6x1yax7x1ya3 x6x1ya4 x7x1ya1 5e-08 Rser=0 Rpar=0

*Hopping connection between (6,1) and (7,1)
Cx6x1ybx7x1yb0 x6x1yb1 x7x1yb2 5e-08 Rser=0 Rpar=0
Cx6x1ybx7x1yb1 x6x1yb2 x7x1yb3 5e-08 Rser=0 Rpar=0
Cx6x1ybx7x1yb2 x6x1yb3 x7x1yb4 5e-08 Rser=0 Rpar=0
Cx6x1ybx7x1yb3 x6x1yb4 x7x1yb1 5e-08 Rser=0 Rpar=0

*Hopping connection between (6,1) and (6,2)
Cx6x1ybx6x2ya0 x6x1yb1 x6x2ya1 1e-07 Rser=0 Rpar=0
Cx6x1ybx6x2ya1 x6x1yb2 x6x2ya2 1e-07 Rser=0 Rpar=0
Cx6x1ybx6x2ya2 x6x1yb3 x6x2ya3 1e-07 Rser=0 Rpar=0
Cx6x1ybx6x2ya3 x6x1yb4 x6x2ya4 1e-07 Rser=0 Rpar=0

*Hopping connection between (7,1) and (7,1)
Cx7x1yax7x1yb0 x7x1ya1 x7x1yb3 6.999999999999999e-08 Rser=0 Rpar=0
Cx7x1yax7x1yb1 x7x1ya2 x7x1yb4 6.999999999999999e-08 Rser=0 Rpar=0
Cx7x1yax7x1yb2 x7x1ya3 x7x1yb1 6.999999999999999e-08 Rser=0 Rpar=0
Cx7x1yax7x1yb3 x7x1ya4 x7x1yb2 6.999999999999999e-08 Rser=0 Rpar=0

*Hopping connection between (7,1) and (8,1)
Cx7x1yax8x1yb0 x7x1ya1 x8x1yb1 5e-08 Rser=0 Rpar=0
Cx7x1yax8x1yb1 x7x1ya2 x8x1yb2 5e-08 Rser=0 Rpar=0
Cx7x1yax8x1yb2 x7x1ya3 x8x1yb3 5e-08 Rser=0 Rpar=0
Cx7x1yax8x1yb3 x7x1ya4 x8x1yb4 5e-08 Rser=0 Rpar=0

*Hopping connection between (7,1) and (8,1)
Cx7x1ybx8x1ya0 x7x1yb1 x8x1ya1 5e-08 Rser=0 Rpar=0
Cx7x1ybx8x1ya1 x7x1yb2 x8x1ya2 5e-08 Rser=0 Rpar=0
Cx7x1ybx8x1ya2 x7x1yb3 x8x1ya3 5e-08 Rser=0 Rpar=0
Cx7x1ybx8x1ya3 x7x1yb4 x8x1ya4 5e-08 Rser=0 Rpar=0

*Hopping connection between (7,1) and (8,1)
Cx7x1yax8x1ya0 x7x1ya1 x8x1ya2 5e-08 Rser=0 Rpar=0
Cx7x1yax8x1ya1 x7x1ya2 x8x1ya3 5e-08 Rser=0 Rpar=0
Cx7x1yax8x1ya2 x7x1ya3 x8x1ya4 5e-08 Rser=0 Rpar=0
Cx7x1yax8x1ya3 x7x1ya4 x8x1ya1 5e-08 Rser=0 Rpar=0

*Hopping connection between (7,1) and (8,1)
Cx7x1ybx8x1yb0 x7x1yb1 x8x1yb2 5e-08 Rser=0 Rpar=0
Cx7x1ybx8x1yb1 x7x1yb2 x8x1yb3 5e-08 Rser=0 Rpar=0
Cx7x1ybx8x1yb2 x7x1yb3 x8x1yb4 5e-08 Rser=0 Rpar=0
Cx7x1ybx8x1yb3 x7x1yb4 x8x1yb1 5e-08 Rser=0 Rpar=0

*Hopping connection between (7,1) and (7,2)
Cx7x1ybx7x2ya0 x7x1yb1 x7x2ya1 1e-07 Rser=0 Rpar=0
Cx7x1ybx7x2ya1 x7x1yb2 x7x2ya2 1e-07 Rser=0 Rpar=0
Cx7x1ybx7x2ya2 x7x1yb3 x7x2ya3 1e-07 Rser=0 Rpar=0
Cx7x1ybx7x2ya3 x7x1yb4 x7x2ya4 1e-07 Rser=0 Rpar=0

*Hopping connection between (8,1) and (8,1)
Cx8x1yax8x1yb0 x8x1ya1 x8x1yb3 6.999999999999999e-08 Rser=0 Rpar=0
Cx8x1yax8x1yb1 x8x1ya2 x8x1yb4 6.999999999999999e-08 Rser=0 Rpar=0
Cx8x1yax8x1yb2 x8x1ya3 x8x1yb1 6.999999999999999e-08 Rser=0 Rpar=0
Cx8x1yax8x1yb3 x8x1ya4 x8x1yb2 6.999999999999999e-08 Rser=0 Rpar=0

*Hopping connection between (8,1) and (9,1)
Cx8x1yax9x1yb0 x8x1ya1 x9x1yb1 5e-08 Rser=0 Rpar=0
Cx8x1yax9x1yb1 x8x1ya2 x9x1yb2 5e-08 Rser=0 Rpar=0
Cx8x1yax9x1yb2 x8x1ya3 x9x1yb3 5e-08 Rser=0 Rpar=0
Cx8x1yax9x1yb3 x8x1ya4 x9x1yb4 5e-08 Rser=0 Rpar=0

*Hopping connection between (8,1) and (9,1)
Cx8x1ybx9x1ya0 x8x1yb1 x9x1ya1 5e-08 Rser=0 Rpar=0
Cx8x1ybx9x1ya1 x8x1yb2 x9x1ya2 5e-08 Rser=0 Rpar=0
Cx8x1ybx9x1ya2 x8x1yb3 x9x1ya3 5e-08 Rser=0 Rpar=0
Cx8x1ybx9x1ya3 x8x1yb4 x9x1ya4 5e-08 Rser=0 Rpar=0

*Hopping connection between (8,1) and (9,1)
Cx8x1yax9x1ya0 x8x1ya1 x9x1ya2 5e-08 Rser=0 Rpar=0
Cx8x1yax9x1ya1 x8x1ya2 x9x1ya3 5e-08 Rser=0 Rpar=0
Cx8x1yax9x1ya2 x8x1ya3 x9x1ya4 5e-08 Rser=0 Rpar=0
Cx8x1yax9x1ya3 x8x1ya4 x9x1ya1 5e-08 Rser=0 Rpar=0

*Hopping connection between (8,1) and (9,1)
Cx8x1ybx9x1yb0 x8x1yb1 x9x1yb2 5e-08 Rser=0 Rpar=0
Cx8x1ybx9x1yb1 x8x1yb2 x9x1yb3 5e-08 Rser=0 Rpar=0
Cx8x1ybx9x1yb2 x8x1yb3 x9x1yb4 5e-08 Rser=0 Rpar=0
Cx8x1ybx9x1yb3 x8x1yb4 x9x1yb1 5e-08 Rser=0 Rpar=0

*Hopping connection between (8,1) and (8,2)
Cx8x1ybx8x2ya0 x8x1yb1 x8x2ya1 1e-07 Rser=0 Rpar=0
Cx8x1ybx8x2ya1 x8x1yb2 x8x2ya2 1e-07 Rser=0 Rpar=0
Cx8x1ybx8x2ya2 x8x1yb3 x8x2ya3 1e-07 Rser=0 Rpar=0
Cx8x1ybx8x2ya3 x8x1yb4 x8x2ya4 1e-07 Rser=0 Rpar=0

*Hopping connection between (9,1) and (9,1)
Cx9x1yax9x1yb0 x9x1ya1 x9x1yb3 6.999999999999999e-08 Rser=0 Rpar=0
Cx9x1yax9x1yb1 x9x1ya2 x9x1yb4 6.999999999999999e-08 Rser=0 Rpar=0
Cx9x1yax9x1yb2 x9x1ya3 x9x1yb1 6.999999999999999e-08 Rser=0 Rpar=0
Cx9x1yax9x1yb3 x9x1ya4 x9x1yb2 6.999999999999999e-08 Rser=0 Rpar=0

*Hopping connection between (9,1) and (10,1)
Cx9x1yax10x1yb0 x9x1ya1 x10x1yb1 5e-08 Rser=0 Rpar=0
Cx9x1yax10x1yb1 x9x1ya2 x10x1yb2 5e-08 Rser=0 Rpar=0
Cx9x1yax10x1yb2 x9x1ya3 x10x1yb3 5e-08 Rser=0 Rpar=0
Cx9x1yax10x1yb3 x9x1ya4 x10x1yb4 5e-08 Rser=0 Rpar=0

*Hopping connection between (9,1) and (10,1)
Cx9x1ybx10x1ya0 x9x1yb1 x10x1ya1 5e-08 Rser=0 Rpar=0
Cx9x1ybx10x1ya1 x9x1yb2 x10x1ya2 5e-08 Rser=0 Rpar=0
Cx9x1ybx10x1ya2 x9x1yb3 x10x1ya3 5e-08 Rser=0 Rpar=0
Cx9x1ybx10x1ya3 x9x1yb4 x10x1ya4 5e-08 Rser=0 Rpar=0

*Hopping connection between (9,1) and (10,1)
Cx9x1yax10x1ya0 x9x1ya1 x10x1ya2 5e-08 Rser=0 Rpar=0
Cx9x1yax10x1ya1 x9x1ya2 x10x1ya3 5e-08 Rser=0 Rpar=0
Cx9x1yax10x1ya2 x9x1ya3 x10x1ya4 5e-08 Rser=0 Rpar=0
Cx9x1yax10x1ya3 x9x1ya4 x10x1ya1 5e-08 Rser=0 Rpar=0

*Hopping connection between (9,1) and (10,1)
Cx9x1ybx10x1yb0 x9x1yb1 x10x1yb2 5e-08 Rser=0 Rpar=0
Cx9x1ybx10x1yb1 x9x1yb2 x10x1yb3 5e-08 Rser=0 Rpar=0
Cx9x1ybx10x1yb2 x9x1yb3 x10x1yb4 5e-08 Rser=0 Rpar=0
Cx9x1ybx10x1yb3 x9x1yb4 x10x1yb1 5e-08 Rser=0 Rpar=0

*Hopping connection between (9,1) and (9,2)
Cx9x1ybx9x2ya0 x9x1yb1 x9x2ya1 1e-07 Rser=0 Rpar=0
Cx9x1ybx9x2ya1 x9x1yb2 x9x2ya2 1e-07 Rser=0 Rpar=0
Cx9x1ybx9x2ya2 x9x1yb3 x9x2ya3 1e-07 Rser=0 Rpar=0
Cx9x1ybx9x2ya3 x9x1yb4 x9x2ya4 1e-07 Rser=0 Rpar=0

*Hopping connection between (1,2) and (1,2)
Cx1x2yax1x2yb0 x1x2ya1 x1x2yb3 6.999999999999999e-08 Rser=0 Rpar=0
Cx1x2yax1x2yb1 x1x2ya2 x1x2yb4 6.999999999999999e-08 Rser=0 Rpar=0
Cx1x2yax1x2yb2 x1x2ya3 x1x2yb1 6.999999999999999e-08 Rser=0 Rpar=0
Cx1x2yax1x2yb3 x1x2ya4 x1x2yb2 6.999999999999999e-08 Rser=0 Rpar=0

*Hopping connection between (1,2) and (2,2)
Cx1x2yax2x2yb0 x1x2ya1 x2x2yb1 5e-08 Rser=0 Rpar=0
Cx1x2yax2x2yb1 x1x2ya2 x2x2yb2 5e-08 Rser=0 Rpar=0
Cx1x2yax2x2yb2 x1x2ya3 x2x2yb3 5e-08 Rser=0 Rpar=0
Cx1x2yax2x2yb3 x1x2ya4 x2x2yb4 5e-08 Rser=0 Rpar=0

*Hopping connection between (1,2) and (2,2)
Cx1x2ybx2x2ya0 x1x2yb1 x2x2ya1 5e-08 Rser=0 Rpar=0
Cx1x2ybx2x2ya1 x1x2yb2 x2x2ya2 5e-08 Rser=0 Rpar=0
Cx1x2ybx2x2ya2 x1x2yb3 x2x2ya3 5e-08 Rser=0 Rpar=0
Cx1x2ybx2x2ya3 x1x2yb4 x2x2ya4 5e-08 Rser=0 Rpar=0

*Hopping connection between (1,2) and (2,2)
Cx1x2yax2x2ya0 x1x2ya1 x2x2ya2 5e-08 Rser=0 Rpar=0
Cx1x2yax2x2ya1 x1x2ya2 x2x2ya3 5e-08 Rser=0 Rpar=0
Cx1x2yax2x2ya2 x1x2ya3 x2x2ya4 5e-08 Rser=0 Rpar=0
Cx1x2yax2x2ya3 x1x2ya4 x2x2ya1 5e-08 Rser=0 Rpar=0

*Hopping connection between (1,2) and (2,2)
Cx1x2ybx2x2yb0 x1x2yb1 x2x2yb2 5e-08 Rser=0 Rpar=0
Cx1x2ybx2x2yb1 x1x2yb2 x2x2yb3 5e-08 Rser=0 Rpar=0
Cx1x2ybx2x2yb2 x1x2yb3 x2x2yb4 5e-08 Rser=0 Rpar=0
Cx1x2ybx2x2yb3 x1x2yb4 x2x2yb1 5e-08 Rser=0 Rpar=0

*Hopping connection between (1,2) and (1,3)
Cx1x2ybx1x3ya0 x1x2yb1 x1x3ya1 1e-07 Rser=0 Rpar=0
Cx1x2ybx1x3ya1 x1x2yb2 x1x3ya2 1e-07 Rser=0 Rpar=0
Cx1x2ybx1x3ya2 x1x2yb3 x1x3ya3 1e-07 Rser=0 Rpar=0
Cx1x2ybx1x3ya3 x1x2yb4 x1x3ya4 1e-07 Rser=0 Rpar=0

*Hopping connection between (2,2) and (2,2)
Cx2x2yax2x2yb0 x2x2ya1 x2x2yb3 6.999999999999999e-08 Rser=0 Rpar=0
Cx2x2yax2x2yb1 x2x2ya2 x2x2yb4 6.999999999999999e-08 Rser=0 Rpar=0
Cx2x2yax2x2yb2 x2x2ya3 x2x2yb1 6.999999999999999e-08 Rser=0 Rpar=0
Cx2x2yax2x2yb3 x2x2ya4 x2x2yb2 6.999999999999999e-08 Rser=0 Rpar=0

*Hopping connection between (2,2) and (3,2)
Cx2x2yax3x2yb0 x2x2ya1 x3x2yb1 5e-08 Rser=0 Rpar=0
Cx2x2yax3x2yb1 x2x2ya2 x3x2yb2 5e-08 Rser=0 Rpar=0
Cx2x2yax3x2yb2 x2x2ya3 x3x2yb3 5e-08 Rser=0 Rpar=0
Cx2x2yax3x2yb3 x2x2ya4 x3x2yb4 5e-08 Rser=0 Rpar=0

*Hopping connection between (2,2) and (3,2)
Cx2x2ybx3x2ya0 x2x2yb1 x3x2ya1 5e-08 Rser=0 Rpar=0
Cx2x2ybx3x2ya1 x2x2yb2 x3x2ya2 5e-08 Rser=0 Rpar=0
Cx2x2ybx3x2ya2 x2x2yb3 x3x2ya3 5e-08 Rser=0 Rpar=0
Cx2x2ybx3x2ya3 x2x2yb4 x3x2ya4 5e-08 Rser=0 Rpar=0

*Hopping connection between (2,2) and (3,2)
Cx2x2yax3x2ya0 x2x2ya1 x3x2ya2 5e-08 Rser=0 Rpar=0
Cx2x2yax3x2ya1 x2x2ya2 x3x2ya3 5e-08 Rser=0 Rpar=0
Cx2x2yax3x2ya2 x2x2ya3 x3x2ya4 5e-08 Rser=0 Rpar=0
Cx2x2yax3x2ya3 x2x2ya4 x3x2ya1 5e-08 Rser=0 Rpar=0

*Hopping connection between (2,2) and (3,2)
Cx2x2ybx3x2yb0 x2x2yb1 x3x2yb2 5e-08 Rser=0 Rpar=0
Cx2x2ybx3x2yb1 x2x2yb2 x3x2yb3 5e-08 Rser=0 Rpar=0
Cx2x2ybx3x2yb2 x2x2yb3 x3x2yb4 5e-08 Rser=0 Rpar=0
Cx2x2ybx3x2yb3 x2x2yb4 x3x2yb1 5e-08 Rser=0 Rpar=0

*Hopping connection between (2,2) and (2,3)
Cx2x2ybx2x3ya0 x2x2yb1 x2x3ya1 1e-07 Rser=0 Rpar=0
Cx2x2ybx2x3ya1 x2x2yb2 x2x3ya2 1e-07 Rser=0 Rpar=0
Cx2x2ybx2x3ya2 x2x2yb3 x2x3ya3 1e-07 Rser=0 Rpar=0
Cx2x2ybx2x3ya3 x2x2yb4 x2x3ya4 1e-07 Rser=0 Rpar=0

*Hopping connection between (3,2) and (3,2)
Cx3x2yax3x2yb0 x3x2ya1 x3x2yb3 6.999999999999999e-08 Rser=0 Rpar=0
Cx3x2yax3x2yb1 x3x2ya2 x3x2yb4 6.999999999999999e-08 Rser=0 Rpar=0
Cx3x2yax3x2yb2 x3x2ya3 x3x2yb1 6.999999999999999e-08 Rser=0 Rpar=0
Cx3x2yax3x2yb3 x3x2ya4 x3x2yb2 6.999999999999999e-08 Rser=0 Rpar=0

*Hopping connection between (3,2) and (4,2)
Cx3x2yax4x2yb0 x3x2ya1 x4x2yb1 5e-08 Rser=0 Rpar=0
Cx3x2yax4x2yb1 x3x2ya2 x4x2yb2 5e-08 Rser=0 Rpar=0
Cx3x2yax4x2yb2 x3x2ya3 x4x2yb3 5e-08 Rser=0 Rpar=0
Cx3x2yax4x2yb3 x3x2ya4 x4x2yb4 5e-08 Rser=0 Rpar=0

*Hopping connection between (3,2) and (4,2)
Cx3x2ybx4x2ya0 x3x2yb1 x4x2ya1 5e-08 Rser=0 Rpar=0
Cx3x2ybx4x2ya1 x3x2yb2 x4x2ya2 5e-08 Rser=0 Rpar=0
Cx3x2ybx4x2ya2 x3x2yb3 x4x2ya3 5e-08 Rser=0 Rpar=0
Cx3x2ybx4x2ya3 x3x2yb4 x4x2ya4 5e-08 Rser=0 Rpar=0

*Hopping connection between (3,2) and (4,2)
Cx3x2yax4x2ya0 x3x2ya1 x4x2ya2 5e-08 Rser=0 Rpar=0
Cx3x2yax4x2ya1 x3x2ya2 x4x2ya3 5e-08 Rser=0 Rpar=0
Cx3x2yax4x2ya2 x3x2ya3 x4x2ya4 5e-08 Rser=0 Rpar=0
Cx3x2yax4x2ya3 x3x2ya4 x4x2ya1 5e-08 Rser=0 Rpar=0

*Hopping connection between (3,2) and (4,2)
Cx3x2ybx4x2yb0 x3x2yb1 x4x2yb2 5e-08 Rser=0 Rpar=0
Cx3x2ybx4x2yb1 x3x2yb2 x4x2yb3 5e-08 Rser=0 Rpar=0
Cx3x2ybx4x2yb2 x3x2yb3 x4x2yb4 5e-08 Rser=0 Rpar=0
Cx3x2ybx4x2yb3 x3x2yb4 x4x2yb1 5e-08 Rser=0 Rpar=0

*Hopping connection between (3,2) and (3,3)
Cx3x2ybx3x3ya0 x3x2yb1 x3x3ya1 1e-07 Rser=0 Rpar=0
Cx3x2ybx3x3ya1 x3x2yb2 x3x3ya2 1e-07 Rser=0 Rpar=0
Cx3x2ybx3x3ya2 x3x2yb3 x3x3ya3 1e-07 Rser=0 Rpar=0
Cx3x2ybx3x3ya3 x3x2yb4 x3x3ya4 1e-07 Rser=0 Rpar=0

*Hopping connection between (4,2) and (4,2)
Cx4x2yax4x2yb0 x4x2ya1 x4x2yb3 6.999999999999999e-08 Rser=0 Rpar=0
Cx4x2yax4x2yb1 x4x2ya2 x4x2yb4 6.999999999999999e-08 Rser=0 Rpar=0
Cx4x2yax4x2yb2 x4x2ya3 x4x2yb1 6.999999999999999e-08 Rser=0 Rpar=0
Cx4x2yax4x2yb3 x4x2ya4 x4x2yb2 6.999999999999999e-08 Rser=0 Rpar=0

*Hopping connection between (4,2) and (5,2)
Cx4x2yax5x2yb0 x4x2ya1 x5x2yb1 5e-08 Rser=0 Rpar=0
Cx4x2yax5x2yb1 x4x2ya2 x5x2yb2 5e-08 Rser=0 Rpar=0
Cx4x2yax5x2yb2 x4x2ya3 x5x2yb3 5e-08 Rser=0 Rpar=0
Cx4x2yax5x2yb3 x4x2ya4 x5x2yb4 5e-08 Rser=0 Rpar=0

*Hopping connection between (4,2) and (5,2)
Cx4x2ybx5x2ya0 x4x2yb1 x5x2ya1 5e-08 Rser=0 Rpar=0
Cx4x2ybx5x2ya1 x4x2yb2 x5x2ya2 5e-08 Rser=0 Rpar=0
Cx4x2ybx5x2ya2 x4x2yb3 x5x2ya3 5e-08 Rser=0 Rpar=0
Cx4x2ybx5x2ya3 x4x2yb4 x5x2ya4 5e-08 Rser=0 Rpar=0

*Hopping connection between (4,2) and (5,2)
Cx4x2yax5x2ya0 x4x2ya1 x5x2ya2 5e-08 Rser=0 Rpar=0
Cx4x2yax5x2ya1 x4x2ya2 x5x2ya3 5e-08 Rser=0 Rpar=0
Cx4x2yax5x2ya2 x4x2ya3 x5x2ya4 5e-08 Rser=0 Rpar=0
Cx4x2yax5x2ya3 x4x2ya4 x5x2ya1 5e-08 Rser=0 Rpar=0

*Hopping connection between (4,2) and (5,2)
Cx4x2ybx5x2yb0 x4x2yb1 x5x2yb2 5e-08 Rser=0 Rpar=0
Cx4x2ybx5x2yb1 x4x2yb2 x5x2yb3 5e-08 Rser=0 Rpar=0
Cx4x2ybx5x2yb2 x4x2yb3 x5x2yb4 5e-08 Rser=0 Rpar=0
Cx4x2ybx5x2yb3 x4x2yb4 x5x2yb1 5e-08 Rser=0 Rpar=0

*Hopping connection between (4,2) and (4,3)
Cx4x2ybx4x3ya0 x4x2yb1 x4x3ya1 1e-07 Rser=0 Rpar=0
Cx4x2ybx4x3ya1 x4x2yb2 x4x3ya2 1e-07 Rser=0 Rpar=0
Cx4x2ybx4x3ya2 x4x2yb3 x4x3ya3 1e-07 Rser=0 Rpar=0
Cx4x2ybx4x3ya3 x4x2yb4 x4x3ya4 1e-07 Rser=0 Rpar=0

*Hopping connection between (5,2) and (5,2)
Cx5x2yax5x2yb0 x5x2ya1 x5x2yb3 6.999999999999999e-08 Rser=0 Rpar=0
Cx5x2yax5x2yb1 x5x2ya2 x5x2yb4 6.999999999999999e-08 Rser=0 Rpar=0
Cx5x2yax5x2yb2 x5x2ya3 x5x2yb1 6.999999999999999e-08 Rser=0 Rpar=0
Cx5x2yax5x2yb3 x5x2ya4 x5x2yb2 6.999999999999999e-08 Rser=0 Rpar=0

*Hopping connection between (5,2) and (6,2)
Cx5x2yax6x2yb0 x5x2ya1 x6x2yb1 5e-08 Rser=0 Rpar=0
Cx5x2yax6x2yb1 x5x2ya2 x6x2yb2 5e-08 Rser=0 Rpar=0
Cx5x2yax6x2yb2 x5x2ya3 x6x2yb3 5e-08 Rser=0 Rpar=0