*Sibcircuit Definition
.subckt loop 1 2 3 4
l1 1 2 1e-05
lg1 1 0 1e-05
l2 2 3 1e-05
lg2 2 0 1e-05
l3 3 4 1e-05
lg3 3 0 1e-05
l4 4 1 1e-05
lg4 4 0 1e-05
.ends

* Lattice Cite Definitions
x1x1ya x1x1ya1 x1x1ya2 x1x1ya3 x1x1ya4 loop
x1x1yb x1x1yb1 x1x1yb2 x1x1yb3 x1x1yb4 loop
x1x2ya x1x2ya1 x1x2ya2 x1x2ya3 x1x2ya4 loop
x1x2yb x1x2yb1 x1x2yb2 x1x2yb3 x1x2yb4 loop
x1x3ya x1x3ya1 x1x3ya2 x1x3ya3 x1x3ya4 loop
x1x3yb x1x3yb1 x1x3yb2 x1x3yb3 x1x3yb4 loop
x1x4ya x1x4ya1 x1x4ya2 x1x4ya3 x1x4ya4 loop
x1x4yb x1x4yb1 x1x4yb2 x1x4yb3 x1x4yb4 loop
x1x5ya x1x5ya1 x1x5ya2 x1x5ya3 x1x5ya4 loop
x1x5yb x1x5yb1 x1x5yb2 x1x5yb3 x1x5yb4 loop
x1x6ya x1x6ya1 x1x6ya2 x1x6ya3 x1x6ya4 loop
x1x6yb x1x6yb1 x1x6yb2 x1x6yb3 x1x6yb4 loop
x1x7ya x1x7ya1 x1x7ya2 x1x7ya3 x1x7ya4 loop
x1x7yb x1x7yb1 x1x7yb2 x1x7yb3 x1x7yb4 loop
x1x8ya x1x8ya1 x1x8ya2 x1x8ya3 x1x8ya4 loop
x1x8yb x1x8yb1 x1x8yb2 x1x8yb3 x1x8yb4 loop
x1x9ya x1x9ya1 x1x9ya2 x1x9ya3 x1x9ya4 loop
x1x9yb x1x9yb1 x1x9yb2 x1x9yb3 x1x9yb4 loop
x1x10ya x1x10ya1 x1x10ya2 x1x10ya3 x1x10ya4 loop
x1x10yb x1x10yb1 x1x10yb2 x1x10yb3 x1x10yb4 loop
x1x11ya x1x11ya1 x1x11ya2 x1x11ya3 x1x11ya4 loop
x1x11yb x1x11yb1 x1x11yb2 x1x11yb3 x1x11yb4 loop
x1x12ya x1x12ya1 x1x12ya2 x1x12ya3 x1x12ya4 loop
x1x12yb x1x12yb1 x1x12yb2 x1x12yb3 x1x12yb4 loop
x1x13ya x1x13ya1 x1x13ya2 x1x13ya3 x1x13ya4 loop
x1x13yb x1x13yb1 x1x13yb2 x1x13yb3 x1x13yb4 loop
x1x14ya x1x14ya1 x1x14ya2 x1x14ya3 x1x14ya4 loop
x1x14yb x1x14yb1 x1x14yb2 x1x14yb3 x1x14yb4 loop
x1x15ya x1x15ya1 x1x15ya2 x1x15ya3 x1x15ya4 loop
x1x15yb x1x15yb1 x1x15yb2 x1x15yb3 x1x15yb4 loop
x2x1ya x2x1ya1 x2x1ya2 x2x1ya3 x2x1ya4 loop
x2x1yb x2x1yb1 x2x1yb2 x2x1yb3 x2x1yb4 loop
x2x2ya x2x2ya1 x2x2ya2 x2x2ya3 x2x2ya4 loop
x2x2yb x2x2yb1 x2x2yb2 x2x2yb3 x2x2yb4 loop
x2x3ya x2x3ya1 x2x3ya2 x2x3ya3 x2x3ya4 loop
x2x3yb x2x3yb1 x2x3yb2 x2x3yb3 x2x3yb4 loop
x2x4ya x2x4ya1 x2x4ya2 x2x4ya3 x2x4ya4 loop
x2x4yb x2x4yb1 x2x4yb2 x2x4yb3 x2x4yb4 loop
x2x5ya x2x5ya1 x2x5ya2 x2x5ya3 x2x5ya4 loop
x2x5yb x2x5yb1 x2x5yb2 x2x5yb3 x2x5yb4 loop
x2x6ya x2x6ya1 x2x6ya2 x2x6ya3 x2x6ya4 loop
x2x6yb x2x6yb1 x2x6yb2 x2x6yb3 x2x6yb4 loop
x2x7ya x2x7ya1 x2x7ya2 x2x7ya3 x2x7ya4 loop
x2x7yb x2x7yb1 x2x7yb2 x2x7yb3 x2x7yb4 loop
x2x8ya x2x8ya1 x2x8ya2 x2x8ya3 x2x8ya4 loop
x2x8yb x2x8yb1 x2x8yb2 x2x8yb3 x2x8yb4 loop
x2x9ya x2x9ya1 x2x9ya2 x2x9ya3 x2x9ya4 loop
x2x9yb x2x9yb1 x2x9yb2 x2x9yb3 x2x9yb4 loop
x2x10ya x2x10ya1 x2x10ya2 x2x10ya3 x2x10ya4 loop
x2x10yb x2x10yb1 x2x10yb2 x2x10yb3 x2x10yb4 loop
x2x11ya x2x11ya1 x2x11ya2 x2x11ya3 x2x11ya4 loop
x2x11yb x2x11yb1 x2x11yb2 x2x11yb3 x2x11yb4 loop
x2x12ya x2x12ya1 x2x12ya2 x2x12ya3 x2x12ya4 loop
x2x12yb x2x12yb1 x2x12yb2 x2x12yb3 x2x12yb4 loop
x2x13ya x2x13ya1 x2x13ya2 x2x13ya3 x2x13ya4 loop
x2x13yb x2x13yb1 x2x13yb2 x2x13yb3 x2x13yb4 loop
x2x14ya x2x14ya1 x2x14ya2 x2x14ya3 x2x14ya4 loop
x2x14yb x2x14yb1 x2x14yb2 x2x14yb3 x2x14yb4 loop
x2x15ya x2x15ya1 x2x15ya2 x2x15ya3 x2x15ya4 loop
x2x15yb x2x15yb1 x2x15yb2 x2x15yb3 x2x15yb4 loop
x3x1ya x3x1ya1 x3x1ya2 x3x1ya3 x3x1ya4 loop
x3x1yb x3x1yb1 x3x1yb2 x3x1yb3 x3x1yb4 loop
x3x2ya x3x2ya1 x3x2ya2 x3x2ya3 x3x2ya4 loop
x3x2yb x3x2yb1 x3x2yb2 x3x2yb3 x3x2yb4 loop
x3x3ya x3x3ya1 x3x3ya2 x3x3ya3 x3x3ya4 loop
x3x3yb x3x3yb1 x3x3yb2 x3x3yb3 x3x3yb4 loop
x3x4ya x3x4ya1 x3x4ya2 x3x4ya3 x3x4ya4 loop
x3x4yb x3x4yb1 x3x4yb2 x3x4yb3 x3x4yb4 loop
x3x5ya x3x5ya1 x3x5ya2 x3x5ya3 x3x5ya4 loop
x3x5yb x3x5yb1 x3x5yb2 x3x5yb3 x3x5yb4 loop
x3x6ya x3x6ya1 x3x6ya2 x3x6ya3 x3x6ya4 loop
x3x6yb x3x6yb1 x3x6yb2 x3x6yb3 x3x6yb4 loop
x3x7ya x3x7ya1 x3x7ya2 x3x7ya3 x3x7ya4 loop
x3x7yb x3x7yb1 x3x7yb2 x3x7yb3 x3x7yb4 loop
x3x8ya x3x8ya1 x3x8ya2 x3x8ya3 x3x8ya4 loop
x3x8yb x3x8yb1 x3x8yb2 x3x8yb3 x3x8yb4 loop
x3x9ya x3x9ya1 x3x9ya2 x3x9ya3 x3x9ya4 loop
x3x9yb x3x9yb1 x3x9yb2 x3x9yb3 x3x9yb4 loop
x3x10ya x3x10ya1 x3x10ya2 x3x10ya3 x3x10ya4 loop
x3x10yb x3x10yb1 x3x10yb2 x3x10yb3 x3x10yb4 loop
x3x11ya x3x11ya1 x3x11ya2 x3x11ya3 x3x11ya4 loop
x3x11yb x3x11yb1 x3x11yb2 x3x11yb3 x3x11yb4 loop
x3x12ya x3x12ya1 x3x12ya2 x3x12ya3 x3x12ya4 loop
x3x12yb x3x12yb1 x3x12yb2 x3x12yb3 x3x12yb4 loop
x3x13ya x3x13ya1 x3x13ya2 x3x13ya3 x3x13ya4 loop
x3x13yb x3x13yb1 x3x13yb2 x3x13yb3 x3x13yb4 loop
x3x14ya x3x14ya1 x3x14ya2 x3x14ya3 x3x14ya4 loop
x3x14yb x3x14yb1 x3x14yb2 x3x14yb3 x3x14yb4 loop
x3x15ya x3x15ya1 x3x15ya2 x3x15ya3 x3x15ya4 loop
x3x15yb x3x15yb1 x3x15yb2 x3x15yb3 x3x15yb4 loop
x4x1ya x4x1ya1 x4x1ya2 x4x1ya3 x4x1ya4 loop
x4x1yb x4x1yb1 x4x1yb2 x4x1yb3 x4x1yb4 loop
x4x2ya x4x2ya1 x4x2ya2 x4x2ya3 x4x2ya4 loop
x4x2yb x4x2yb1 x4x2yb2 x4x2yb3 x4x2yb4 loop
x4x3ya x4x3ya1 x4x3ya2 x4x3ya3 x4x3ya4 loop
x4x3yb x4x3yb1 x4x3yb2 x4x3yb3 x4x3yb4 loop
x4x4ya x4x4ya1 x4x4ya2 x4x4ya3 x4x4ya4 loop
x4x4yb x4x4yb1 x4x4yb2 x4x4yb3 x4x4yb4 loop
x4x5ya x4x5ya1 x4x5ya2 x4x5ya3 x4x5ya4 loop
x4x5yb x4x5yb1 x4x5yb2 x4x5yb3 x4x5yb4 loop
x4x6ya x4x6ya1 x4x6ya2 x4x6ya3 x4x6ya4 loop
x4x6yb x4x6yb1 x4x6yb2 x4x6yb3 x4x6yb4 loop
x4x7ya x4x7ya1 x4x7ya2 x4x7ya3 x4x7ya4 loop
x4x7yb x4x7yb1 x4x7yb2 x4x7yb3 x4x7yb4 loop
x4x8ya x4x8ya1 x4x8ya2 x4x8ya3 x4x8ya4 loop
x4x8yb x4x8yb1 x4x8yb2 x4x8yb3 x4x8yb4 loop
x4x9ya x4x9ya1 x4x9ya2 x4x9ya3 x4x9ya4 loop
x4x9yb x4x9yb1 x4x9yb2 x4x9yb3 x4x9yb4 loop
x4x10ya x4x10ya1 x4x10ya2 x4x10ya3 x4x10ya4 loop
x4x10yb x4x10yb1 x4x10yb2 x4x10yb3 x4x10yb4 loop
x4x11ya x4x11ya1 x4x11ya2 x4x11ya3 x4x11ya4 loop
x4x11yb x4x11yb1 x4x11yb2 x4x11yb3 x4x11yb4 loop
x4x12ya x4x12ya1 x4x12ya2 x4x12ya3 x4x12ya4 loop
x4x12yb x4x12yb1 x4x12yb2 x4x12yb3 x4x12yb4 loop
x4x13ya x4x13ya1 x4x13ya2 x4x13ya3 x4x13ya4 loop
x4x13yb x4x13yb1 x4x13yb2 x4x13yb3 x4x13yb4 loop
x4x14ya x4x14ya1 x4x14ya2 x4x14ya3 x4x14ya4 loop
x4x14yb x4x14yb1 x4x14yb2 x4x14yb3 x4x14yb4 loop
x4x15ya x4x15ya1 x4x15ya2 x4x15ya3 x4x15ya4 loop
x4x15yb x4x15yb1 x4x15yb2 x4x15yb3 x4x15yb4 loop
x5x1ya x5x1ya1 x5x1ya2 x5x1ya3 x5x1ya4 loop
x5x1yb x5x1yb1 x5x1yb2 x5x1yb3 x5x1yb4 loop
x5x2ya x5x2ya1 x5x2ya2 x5x2ya3 x5x2ya4 loop
x5x2yb x5x2yb1 x5x2yb2 x5x2yb3 x5x2yb4 loop
x5x3ya x5x3ya1 x5x3ya2 x5x3ya3 x5x3ya4 loop
x5x3yb x5x3yb1 x5x3yb2 x5x3yb3 x5x3yb4 loop
x5x4ya x5x4ya1 x5x4ya2 x5x4ya3 x5x4ya4 loop
x5x4yb x5x4yb1 x5x4yb2 x5x4yb3 x5x4yb4 loop
x5x5ya x5x5ya1 x5x5ya2 x5x5ya3 x5x5ya4 loop
x5x5yb x5x5yb1 x5x5yb2 x5x5yb3 x5x5yb4 loop
x5x6ya x5x6ya1 x5x6ya2 x5x6ya3 x5x6ya4 loop
x5x6yb x5x6yb1 x5x6yb2 x5x6yb3 x5x6yb4 loop
x5x7ya x5x7ya1 x5x7ya2 x5x7ya3 x5x7ya4 loop
x5x7yb x5x7yb1 x5x7yb2 x5x7yb3 x5x7yb4 loop
x5x8ya x5x8ya1 x5x8ya2 x5x8ya3 x5x8ya4 loop
x5x8yb x5x8yb1 x5x8yb2 x5x8yb3 x5x8yb4 loop
x5x9ya x5x9ya1 x5x9ya2 x5x9ya3 x5x9ya4 loop
x5x9yb x5x9yb1 x5x9yb2 x5x9yb3 x5x9yb4 loop
x5x10ya x5x10ya1 x5x10ya2 x5x10ya3 x5x10ya4 loop
x5x10yb x5x10yb1 x5x10yb2 x5x10yb3 x5x10yb4 loop
x5x11ya x5x11ya1 x5x11ya2 x5x11ya3 x5x11ya4 loop
x5x11yb x5x11yb1 x5x11yb2 x5x11yb3 x5x11yb4 loop
x5x12ya x5x12ya1 x5x12ya2 x5x12ya3 x5x12ya4 loop
x5x12yb x5x12yb1 x5x12yb2 x5x12yb3 x5x12yb4 loop
x5x13ya x5x13ya1 x5x13ya2 x5x13ya3 x5x13ya4 loop
x5x13yb x5x13yb1 x5x13yb2 x5x13yb3 x5x13yb4 loop
x5x14ya x5x14ya1 x5x14ya2 x5x14ya3 x5x14ya4 loop
x5x14yb x5x14yb1 x5x14yb2 x5x14yb3 x5x14yb4 loop
x5x15ya x5x15ya1 x5x15ya2 x5x15ya3 x5x15ya4 loop
x5x15yb x5x15yb1 x5x15yb2 x5x15yb3 x5x15yb4 loop
x6x1ya x6x1ya1 x6x1ya2 x6x1ya3 x6x1ya4 loop
x6x1yb x6x1yb1 x6x1yb2 x6x1yb3 x6x1yb4 loop
x6x2ya x6x2ya1 x6x2ya2 x6x2ya3 x6x2ya4 loop
x6x2yb x6x2yb1 x6x2yb2 x6x2yb3 x6x2yb4 loop
x6x3ya x6x3ya1 x6x3ya2 x6x3ya3 x6x3ya4 loop
x6x3yb x6x3yb1 x6x3yb2 x6x3yb3 x6x3yb4 loop
x6x4ya x6x4ya1 x6x4ya2 x6x4ya3 x6x4ya4 loop
x6x4yb x6x4yb1 x6x4yb2 x6x4yb3 x6x4yb4 loop
x6x5ya x6x5ya1 x6x5ya2 x6x5ya3 x6x5ya4 loop
x6x5yb x6x5yb1 x6x5yb2 x6x5yb3 x6x5yb4 loop
x6x6ya x6x6ya1 x6x6ya2 x6x6ya3 x6x6ya4 loop
x6x6yb x6x6yb1 x6x6yb2 x6x6yb3 x6x6yb4 loop
x6x7ya x6x7ya1 x6x7ya2 x6x7ya3 x6x7ya4 loop
x6x7yb x6x7yb1 x6x7yb2 x6x7yb3 x6x7yb4 loop
x6x8ya x6x8ya1 x6x8ya2 x6x8ya3 x6x8ya4 loop
x6x8yb x6x8yb1 x6x8yb2 x6x8yb3 x6x8yb4 loop
x6x9ya x6x9ya1 x6x9ya2 x6x9ya3 x6x9ya4 loop
x6x9yb x6x9yb1 x6x9yb2 x6x9yb3 x6x9yb4 loop
x6x10ya x6x10ya1 x6x10ya2 x6x10ya3 x6x10ya4 loop
x6x10yb x6x10yb1 x6x10yb2 x6x10yb3 x6x10yb4 loop
x6x11ya x6x11ya1 x6x11ya2 x6x11ya3 x6x11ya4 loop
x6x11yb x6x11yb1 x6x11yb2 x6x11yb3 x6x11yb4 loop
x6x12ya x6x12ya1 x6x12ya2 x6x12ya3 x6x12ya4 loop
x6x12yb x6x12yb1 x6x12yb2 x6x12yb3 x6x12yb4 loop
x6x13ya x6x13ya1 x6x13ya2 x6x13ya3 x6x13ya4 loop
x6x13yb x6x13yb1 x6x13yb2 x6x13yb3 x6x13yb4 loop
x6x14ya x6x14ya1 x6x14ya2 x6x14ya3 x6x14ya4 loop
x6x14yb x6x14yb1 x6x14yb2 x6x14yb3 x6x14yb4 loop
x6x15ya x6x15ya1 x6x15ya2 x6x15ya3 x6x15ya4 loop
x6x15yb x6x15yb1 x6x15yb2 x6x15yb3 x6x15yb4 loop
x7x1ya x7x1ya1 x7x1ya2 x7x1ya3 x7x1ya4 loop
x7x1yb x7x1yb1 x7x1yb2 x7x1yb3 x7x1yb4 loop
x7x2ya x7x2ya1 x7x2ya2 x7x2ya3 x7x2ya4 loop
x7x2yb x7x2yb1 x7x2yb2 x7x2yb3 x7x2yb4 loop
x7x3ya x7x3ya1 x7x3ya2 x7x3ya3 x7x3ya4 loop
x7x3yb x7x3yb1 x7x3yb2 x7x3yb3 x7x3yb4 loop
x7x4ya x7x4ya1 x7x4ya2 x7x4ya3 x7x4ya4 loop
x7x4yb x7x4yb1 x7x4yb2 x7x4yb3 x7x4yb4 loop
x7x5ya x7x5ya1 x7x5ya2 x7x5ya3 x7x5ya4 loop
x7x5yb x7x5yb1 x7x5yb2 x7x5yb3 x7x5yb4 loop
x7x6ya x7x6ya1 x7x6ya2 x7x6ya3 x7x6ya4 loop
x7x6yb x7x6yb1 x7x6yb2 x7x6yb3 x7x6yb4 loop
x7x7ya x7x7ya1 x7x7ya2 x7x7ya3 x7x7ya4 loop
x7x7yb x7x7yb1 x7x7yb2 x7x7yb3 x7x7yb4 loop
x7x8ya x7x8ya1 x7x8ya2 x7x8ya3 x7x8ya4 loop
x7x8yb x7x8yb1 x7x8yb2 x7x8yb3 x7x8yb4 loop
x7x9ya x7x9ya1 x7x9ya2 x7x9ya3 x7x9ya4 loop
x7x9yb x7x9yb1 x7x9yb2 x7x9yb3 x7x9yb4 loop
x7x10ya x7x10ya1 x7x10ya2 x7x10ya3 x7x10ya4 loop
x7x10yb x7x10yb1 x7x10yb2 x7x10yb3 x7x10yb4 loop
x7x11ya x7x11ya1 x7x11ya2 x7x11ya3 x7x11ya4 loop
x7x11yb x7x11yb1 x7x11yb2 x7x11yb3 x7x11yb4 loop
x7x12ya x7x12ya1 x7x12ya2 x7x12ya3 x7x12ya4 loop
x7x12yb x7x12yb1 x7x12yb2 x7x12yb3 x7x12yb4 loop
x7x13ya x7x13ya1 x7x13ya2 x7x13ya3 x7x13ya4 loop
x7x13yb x7x13yb1 x7x13yb2 x7x13yb3 x7x13yb4 loop
x7x14ya x7x14ya1 x7x14ya2 x7x14ya3 x7x14ya4 loop
x7x14yb x7x14yb1 x7x14yb2 x7x14yb3 x7x14yb4 loop
x7x15ya x7x15ya1 x7x15ya2 x7x15ya3 x7x15ya4 loop
x7x15yb x7x15yb1 x7x15yb2 x7x15yb3 x7x15yb4 loop
x8x1ya x8x1ya1 x8x1ya2 x8x1ya3 x8x1ya4 loop
x8x1yb x8x1yb1 x8x1yb2 x8x1yb3 x8x1yb4 loop
x8x2ya x8x2ya1 x8x2ya2 x8x2ya3 x8x2ya4 loop
x8x2yb x8x2yb1 x8x2yb2 x8x2yb3 x8x2yb4 loop
x8x3ya x8x3ya1 x8x3ya2 x8x3ya3 x8x3ya4 loop
x8x3yb x8x3yb1 x8x3yb2 x8x3yb3 x8x3yb4 loop
x8x4ya x8x4ya1 x8x4ya2 x8x4ya3 x8x4ya4 loop
x8x4yb x8x4yb1 x8x4yb2 x8x4yb3 x8x4yb4 loop
x8x5ya x8x5ya1 x8x5ya2 x8x5ya3 x8x5ya4 loop
x8x5yb x8x5yb1 x8x5yb2 x8x5yb3 x8x5yb4 loop
x8x6ya x8x6ya1 x8x6ya2 x8x6ya3 x8x6ya4 loop
x8x6yb x8x6yb1 x8x6yb2 x8x6yb3 x8x6yb4 loop
x8x7ya x8x7ya1 x8x7ya2 x8x7ya3 x8x7ya4 loop
x8x7yb x8x7yb1 x8x7yb2 x8x7yb3 x8x7yb4 loop
x8x8ya x8x8ya1 x8x8ya2 x8x8ya3 x8x8ya4 loop
x8x8yb x8x8yb1 x8x8yb2 x8x8yb3 x8x8yb4 loop
x8x9ya x8x9ya1 x8x9ya2 x8x9ya3 x8x9ya4 loop
x8x9yb x8x9yb1 x8x9yb2 x8x9yb3 x8x9yb4 loop
x8x10ya x8x10ya1 x8x10ya2 x8x10ya3 x8x10ya4 loop
x8x10yb x8x10yb1 x8x10yb2 x8x10yb3 x8x10yb4 loop
x8x11ya x8x11ya1 x8x11ya2 x8x11ya3 x8x11ya4 loop
x8x11yb x8x11yb1 x8x11yb2 x8x11yb3 x8x11yb4 loop
x8x12ya x8x12ya1 x8x12ya2 x8x12ya3 x8x12ya4 loop
x8x12yb x8x12yb1 x8x12yb2 x8x12yb3 x8x12yb4 loop
x8x13ya x8x13ya1 x8x13ya2 x8x13ya3 x8x13ya4 loop
x8x13yb x8x13yb1 x8x13yb2 x8x13yb3 x8x13yb4 loop
x8x14ya x8x14ya1 x8x14ya2 x8x14ya3 x8x14ya4 loop
x8x14yb x8x14yb1 x8x14yb2 x8x14yb3 x8x14yb4 loop
x8x15ya x8x15ya1 x8x15ya2 x8x15ya3 x8x15ya4 loop
x8x15yb x8x15yb1 x8x15yb2 x8x15yb3 x8x15yb4 loop
x9x1ya x9x1ya1 x9x1ya2 x9x1ya3 x9x1ya4 loop
x9x1yb x9x1yb1 x9x1yb2 x9x1yb3 x9x1yb4 loop
x9x2ya x9x2ya1 x9x2ya2 x9x2ya3 x9x2ya4 loop
x9x2yb x9x2yb1 x9x2yb2 x9x2yb3 x9x2yb4 loop
x9x3ya x9x3ya1 x9x3ya2 x9x3ya3 x9x3ya4 loop
x9x3yb x9x3yb1 x9x3yb2 x9x3yb3 x9x3yb4 loop
x9x4ya x9x4ya1 x9x4ya2 x9x4ya3 x9x4ya4 loop
x9x4yb x9x4yb1 x9x4yb2 x9x4yb3 x9x4yb4 loop
x9x5ya x9x5ya1 x9x5ya2 x9x5ya3 x9x5ya4 loop
x9x5yb x9x5yb1 x9x5yb2 x9x5yb3 x9x5yb4 loop
x9x6ya x9x6ya1 x9x6ya2 x9x6ya3 x9x6ya4 loop
x9x6yb x9x6yb1 x9x6yb2 x9x6yb3 x9x6yb4 loop
x9x7ya x9x7ya1 x9x7ya2 x9x7ya3 x9x7ya4 loop
x9x7yb x9x7yb1 x9x7yb2 x9x7yb3 x9x7yb4 loop
x9x8ya x9x8ya1 x9x8ya2 x9x8ya3 x9x8ya4 loop
x9x8yb x9x8yb1 x9x8yb2 x9x8yb3 x9x8yb4 loop
x9x9ya x9x9ya1 x9x9ya2 x9x9ya3 x9x9ya4 loop
x9x9yb x9x9yb1 x9x9yb2 x9x9yb3 x9x9yb4 loop
x9x10ya x9x10ya1 x9x10ya2 x9x10ya3 x9x10ya4 loop
x9x10yb x9x10yb1 x9x10yb2 x9x10yb3 x9x10yb4 loop
x9x11ya x9x11ya1 x9x11ya2 x9x11ya3 x9x11ya4 loop
x9x11yb x9x11yb1 x9x11yb2 x9x11yb3 x9x11yb4 loop
x9x12ya x9x12ya1 x9x12ya2 x9x12ya3 x9x12ya4 loop
x9x12yb x9x12yb1 x9x12yb2 x9x12yb3 x9x12yb4 loop
x9x13ya x9x13ya1 x9x13ya2 x9x13ya3 x9x13ya4 loop
x9x13yb x9x13yb1 x9x13yb2 x9x13yb3 x9x13yb4 loop
x9x14ya x9x14ya1 x9x14ya2 x9x14ya3 x9x14ya4 loop
x9x14yb x9x14yb1 x9x14yb2 x9x14yb3 x9x14yb4 loop
x9x15ya x9x15ya1 x9x15ya2 x9x15ya3 x9x15ya4 loop
x9x15yb x9x15yb1 x9x15yb2 x9x15yb3 x9x15yb4 loop
x10x1ya x10x1ya1 x10x1ya2 x10x1ya3 x10x1ya4 loop
x10x1yb x10x1yb1 x10x1yb2 x10x1yb3 x10x1yb4 loop
x10x2ya x10x2ya1 x10x2ya2 x10x2ya3 x10x2ya4 loop
x10x2yb x10x2yb1 x10x2yb2 x10x2yb3 x10x2yb4 loop
x10x3ya x10x3ya1 x10x3ya2 x10x3ya3 x10x3ya4 loop
x10x3yb x10x3yb1 x10x3yb2 x10x3yb3 x10x3yb4 loop
x10x4ya x10x4ya1 x10x4ya2 x10x4ya3 x10x4ya4 loop
x10x4yb x10x4yb1 x10x4yb2 x10x4yb3 x10x4yb4 loop
x10x5ya x10x5ya1 x10x5ya2 x10x5ya3 x10x5ya4 loop
x10x5yb x10x5yb1 x10x5yb2 x10x5yb3 x10x5yb4 loop
x10x6ya x10x6ya1 x10x6ya2 x10x6ya3 x10x6ya4 loop
x10x6yb x10x6yb1 x10x6yb2 x10x6yb3 x10x6yb4 loop
x10x7ya x10x7ya1 x10x7ya2 x10x7ya3 x10x7ya4 loop
x10x7yb x10x7yb1 x10x7yb2 x10x7yb3 x10x7yb4 loop
x10x8ya x10x8ya1 x10x8ya2 x10x8ya3 x10x8ya4 loop
x10x8yb x10x8yb1 x10x8yb2 x10x8yb3 x10x8yb4 loop
x10x9ya x10x9ya1 x10x9ya2 x10x9ya3 x10x9ya4 loop
x10x9yb x10x9yb1 x10x9yb2 x10x9yb3 x10x9yb4 loop
x10x10ya x10x10ya1 x10x10ya2 x10x10ya3 x10x10ya4 loop
x10x10yb x10x10yb1 x10x10yb2 x10x10yb3 x10x10yb4 loop
x10x11ya x10x11ya1 x10x11ya2 x10x11ya3 x10x11ya4 loop
x10x11yb x10x11yb1 x10x11yb2 x10x11yb3 x10x11yb4 loop
x10x12ya x10x12ya1 x10x12ya2 x10x12ya3 x10x12ya4 loop
x10x12yb x10x12yb1 x10x12yb2 x10x12yb3 x10x12yb4 loop
x10x13ya x10x13ya1 x10x13ya2 x10x13ya3 x10x13ya4 loop
x10x13yb x10x13yb1 x10x13yb2 x10x13yb3 x10x13yb4 loop
x10x14ya x10x14ya1 x10x14ya2 x10x14ya3 x10x14ya4 loop
x10x14yb x10x14yb1 x10x14yb2 x10x14yb3 x10x14yb4 loop
x10x15ya x10x15ya1 x10x15ya2 x10x15ya3 x10x15ya4 loop
x10x15yb x10x15yb1 x10x15yb2 x10x15yb3 x10x15yb4 loop
x11x1ya x11x1ya1 x11x1ya2 x11x1ya3 x11x1ya4 loop
x11x1yb x11x1yb1 x11x1yb2 x11x1yb3 x11x1yb4 loop
x11x2ya x11x2ya1 x11x2ya2 x11x2ya3 x11x2ya4 loop
x11x2yb x11x2yb1 x11x2yb2 x11x2yb3 x11x2yb4 loop
x11x3ya x11x3ya1 x11x3ya2 x11x3ya3 x11x3ya4 loop
x11x3yb x11x3yb1 x11x3yb2 x11x3yb3 x11x3yb4 loop
x11x4ya x11x4ya1 x11x4ya2 x11x4ya3 x11x4ya4 loop
x11x4yb x11x4yb1 x11x4yb2 x11x4yb3 x11x4yb4 loop
x11x5ya x11x5ya1 x11x5ya2 x11x5ya3 x11x5ya4 loop
x11x5yb x11x5yb1 x11x5yb2 x11x5yb3 x11x5yb4 loop
x11x6ya x11x6ya1 x11x6ya2 x11x6ya3 x11x6ya4 loop
x11x6yb x11x6yb1 x11x6yb2 x11x6yb3 x11x6yb4 loop
x11x7ya x11x7ya1 x11x7ya2 x11x7ya3 x11x7ya4 loop
x11x7yb x11x7yb1 x11x7yb2 x11x7yb3 x11x7yb4 loop
x11x8ya x11x8ya1 x11x8ya2 x11x8ya3 x11x8ya4 loop
x11x8yb x11x8yb1 x11x8yb2 x11x8yb3 x11x8yb4 loop
x11x9ya x11x9ya1 x11x9ya2 x11x9ya3 x11x9ya4 loop
x11x9yb x11x9yb1 x11x9yb2 x11x9yb3 x11x9yb4 loop
x11x10ya x11x10ya1 x11x10ya2 x11x10ya3 x11x10ya4 loop
x11x10yb x11x10yb1 x11x10yb2 x11x10yb3 x11x10yb4 loop
x11x11ya x11x11ya1 x11x11ya2 x11x11ya3 x11x11ya4 loop
x11x11yb x11x11yb1 x11x11yb2 x11x11yb3 x11x11yb4 loop
x11x12ya x11x12ya1 x11x12ya2 x11x12ya3 x11x12ya4 loop
x11x12yb x11x12yb1 x11x12yb2 x11x12yb3 x11x12yb4 loop
x11x13ya x11x13ya1 x11x13ya2 x11x13ya3 x11x13ya4 loop
x11x13yb x11x13yb1 x11x13yb2 x11x13yb3 x11x13yb4 loop
x11x14ya x11x14ya1 x11x14ya2 x11x14ya3 x11x14ya4 loop
x11x14yb x11x14yb1 x11x14yb2 x11x14yb3 x11x14yb4 loop
x11x15ya x11x15ya1 x11x15ya2 x11x15ya3 x11x15ya4 loop
x11x15yb x11x15yb1 x11x15yb2 x11x15yb3 x11x15yb4 loop
x12x1ya x12x1ya1 x12x1ya2 x12x1ya3 x12x1ya4 loop
x12x1yb x12x1yb1 x12x1yb2 x12x1yb3 x12x1yb4 loop
x12x2ya x12x2ya1 x12x2ya2 x12x2ya3 x12x2ya4 loop
x12x2yb x12x2yb1 x12x2yb2 x12x2yb3 x12x2yb4 loop
x12x3ya x12x3ya1 x12x3ya2 x12x3ya3 x12x3ya4 loop
x12x3yb x12x3yb1 x12x3yb2 x12x3yb3 x12x3yb4 loop
x12x4ya x12x4ya1 x12x4ya2 x12x4ya3 x12x4ya4 loop
x12x4yb x12x4yb1 x12x4yb2 x12x4yb3 x12x4yb4 loop
x12x5ya x12x5ya1 x12x5ya2 x12x5ya3 x12x5ya4 loop
x12x5yb x12x5yb1 x12x5yb2 x12x5yb3 x12x5yb4 loop
x12x6ya x12x6ya1 x12x6ya2 x12x6ya3 x12x6ya4 loop
x12x6yb x12x6yb1 x12x6yb2 x12x6yb3 x12x6yb4 loop
x12x7ya x12x7ya1 x12x7ya2 x12x7ya3 x12x7ya4 loop
x12x7yb x12x7yb1 x12x7yb2 x12x7yb3 x12x7yb4 loop
x12x8ya x12x8ya1 x12x8ya2 x12x8ya3 x12x8ya4 loop
x12x8yb x12x8yb1 x12x8yb2 x12x8yb3 x12x8yb4 loop
x12x9ya x12x9ya1 x12x9ya2 x12x9ya3 x12x9ya4 loop
x12x9yb x12x9yb1 x12x9yb2 x12x9yb3 x12x9yb4 loop
x12x10ya x12x10ya1 x12x10ya2 x12x10ya3 x12x10ya4 loop
x12x10yb x12x10yb1 x12x10yb2 x12x10yb3 x12x10yb4 loop
x12x11ya x12x11ya1 x12x11ya2 x12x11ya3 x12x11ya4 loop
x12x11yb x12x11yb1 x12x11yb2 x12x11yb3 x12x11yb4 loop
x12x12ya x12x12ya1 x12x12ya2 x12x12ya3 x12x12ya4 loop
x12x12yb x12x12yb1 x12x12yb2 x12x12yb3 x12x12yb4 loop
x12x13ya x12x13ya1 x12x13ya2 x12x13ya3 x12x13ya4 loop
x12x13yb x12x13yb1 x12x13yb2 x12x13yb3 x12x13yb4 loop
x12x14ya x12x14ya1 x12x14ya2 x12x14ya3 x12x14ya4 loop
x12x14yb x12x14yb1 x12x14yb2 x12x14yb3 x12x14yb4 loop
x12x15ya x12x15ya1 x12x15ya2 x12x15ya3 x12x15ya4 loop
x12x15yb x12x15yb1 x12x15yb2 x12x15yb3 x12x15yb4 loop
x13x1ya x13x1ya1 x13x1ya2 x13x1ya3 x13x1ya4 loop
x13x1yb x13x1yb1 x13x1yb2 x13x1yb3 x13x1yb4 loop
x13x2ya x13x2ya1 x13x2ya2 x13x2ya3 x13x2ya4 loop
x13x2yb x13x2yb1 x13x2yb2 x13x2yb3 x13x2yb4 loop
x13x3ya x13x3ya1 x13x3ya2 x13x3ya3 x13x3ya4 loop
x13x3yb x13x3yb1 x13x3yb2 x13x3yb3 x13x3yb4 loop
x13x4ya x13x4ya1 x13x4ya2 x13x4ya3 x13x4ya4 loop
x13x4yb x13x4yb1 x13x4yb2 x13x4yb3 x13x4yb4 loop
x13x5ya x13x5ya1 x13x5ya2 x13x5ya3 x13x5ya4 loop
x13x5yb x13x5yb1 x13x5yb2 x13x5yb3 x13x5yb4 loop
x13x6ya x13x6ya1 x13x6ya2 x13x6ya3 x13x6ya4 loop
x13x6yb x13x6yb1 x13x6yb2 x13x6yb3 x13x6yb4 loop
x13x7ya x13x7ya1 x13x7ya2 x13x7ya3 x13x7ya4 loop
x13x7yb x13x7yb1 x13x7yb2 x13x7yb3 x13x7yb4 loop
x13x8ya x13x8ya1 x13x8ya2 x13x8ya3 x13x8ya4 loop
x13x8yb x13x8yb1 x13x8yb2 x13x8yb3 x13x8yb4 loop
x13x9ya x13x9ya1 x13x9ya2 x13x9ya3 x13x9ya4 loop
x13x9yb x13x9yb1 x13x9yb2 x13x9yb3 x13x9yb4 loop
x13x10ya x13x10ya1 x13x10ya2 x13x10ya3 x13x10ya4 loop
x13x10yb x13x10yb1 x13x10yb2 x13x10yb3 x13x10yb4 loop
x13x11ya x13x11ya1 x13x11ya2 x13x11ya3 x13x11ya4 loop
x13x11yb x13x11yb1 x13x11yb2 x13x11yb3 x13x11yb4 loop
x13x12ya x13x12ya1 x13x12ya2 x13x12ya3 x13x12ya4 loop
x13x12yb x13x12yb1 x13x12yb2 x13x12yb3 x13x12yb4 loop
x13x13ya x13x13ya1 x13x13ya2 x13x13ya3 x13x13ya4 loop
x13x13yb x13x13yb1 x13x13yb2 x13x13yb3 x13x13yb4 loop
x13x14ya x13x14ya1 x13x14ya2 x13x14ya3 x13x14ya4 loop
x13x14yb x13x14yb1 x13x14yb2 x13x14yb3 x13x14yb4 loop
x13x15ya x13x15ya1 x13x15ya2 x13x15ya3 x13x15ya4 loop
x13x15yb x13x15yb1 x13x15yb2 x13x15yb3 x13x15yb4 loop
x14x1ya x14x1ya1 x14x1ya2 x14x1ya3 x14x1ya4 loop
x14x1yb x14x1yb1 x14x1yb2 x14x1yb3 x14x1yb4 loop
x14x2ya x14x2ya1 x14x2ya2 x14x2ya3 x14x2ya4 loop
x14x2yb x14x2yb1 x14x2yb2 x14x2yb3 x14x2yb4 loop
x14x3ya x14x3ya1 x14x3ya2 x14x3ya3 x14x3ya4 loop
x14x3yb x14x3yb1 x14x3yb2 x14x3yb3 x14x3yb4 loop
x14x4ya x14x4ya1 x14x4ya2 x14x4ya3 x14x4ya4 loop
x14x4yb x14x4yb1 x14x4yb2 x14x4yb3 x14x4yb4 loop
x14x5ya x14x5ya1 x14x5ya2 x14x5ya3 x14x5ya4 loop
x14x5yb x14x5yb1 x14x5yb2 x14x5yb3 x14x5yb4 loop
x14x6ya x14x6ya1 x14x6ya2 x14x6ya3 x14x6ya4 loop
x14x6yb x14x6yb1 x14x6yb2 x14x6yb3 x14x6yb4 loop
x14x7ya x14x7ya1 x14x7ya2 x14x7ya3 x14x7ya4 loop
x14x7yb x14x7yb1 x14x7yb2 x14x7yb3 x14x7yb4 loop
x14x8ya x14x8ya1 x14x8ya2 x14x8ya3 x14x8ya4 loop
x14x8yb x14x8yb1 x14x8yb2 x14x8yb3 x14x8yb4 loop
x14x9ya x14x9ya1 x14x9ya2 x14x9ya3 x14x9ya4 loop
x14x9yb x14x9yb1 x14x9yb2 x14x9yb3 x14x9yb4 loop
x14x10ya x14x10ya1 x14x10ya2 x14x10ya3 x14x10ya4 loop
x14x10yb x14x10yb1 x14x10yb2 x14x10yb3 x14x10yb4 loop
x14x11ya x14x11ya1 x14x11ya2 x14x11ya3 x14x11ya4 loop
x14x11yb x14x11yb1 x14x11yb2 x14x11yb3 x14x11yb4 loop
x14x12ya x14x12ya1 x14x12ya2 x14x12ya3 x14x12ya4 loop
x14x12yb x14x12yb1 x14x12yb2 x14x12yb3 x14x12yb4 loop
x14x13ya x14x13ya1 x14x13ya2 x14x13ya3 x14x13ya4 loop
x14x13yb x14x13yb1 x14x13yb2 x14x13yb3 x14x13yb4 loop
x14x14ya x14x14ya1 x14x14ya2 x14x14ya3 x14x14ya4 loop
x14x14yb x14x14yb1 x14x14yb2 x14x14yb3 x14x14yb4 loop
x14x15ya x14x15ya1 x14x15ya2 x14x15ya3 x14x15ya4 loop
x14x15yb x14x15yb1 x14x15yb2 x14x15yb3 x14x15yb4 loop
x15x1ya x15x1ya1 x15x1ya2 x15x1ya3 x15x1ya4 loop
x15x1yb x15x1yb1 x15x1yb2 x15x1yb3 x15x1yb4 loop
x15x2ya x15x2ya1 x15x2ya2 x15x2ya3 x15x2ya4 loop
x15x2yb x15x2yb1 x15x2yb2 x15x2yb3 x15x2yb4 loop
x15x3ya x15x3ya1 x15x3ya2 x15x3ya3 x15x3ya4 loop
x15x3yb x15x3yb1 x15x3yb2 x15x3yb3 x15x3yb4 loop
x15x4ya x15x4ya1 x15x4ya2 x15x4ya3 x15x4ya4 loop
x15x4yb x15x4yb1 x15x4yb2 x15x4yb3 x15x4yb4 loop
x15x5ya x15x5ya1 x15x5ya2 x15x5ya3 x15x5ya4 loop
x15x5yb x15x5yb1 x15x5yb2 x15x5yb3 x15x5yb4 loop
x15x6ya x15x6ya1 x15x6ya2 x15x6ya3 x15x6ya4 loop
x15x6yb x15x6yb1 x15x6yb2 x15x6yb3 x15x6yb4 loop
x15x7ya x15x7ya1 x15x7ya2 x15x7ya3 x15x7ya4 loop
x15x7yb x15x7yb1 x15x7yb2 x15x7yb3 x15x7yb4 loop
x15x8ya x15x8ya1 x15x8ya2 x15x8ya3 x15x8ya4 loop
x15x8yb x15x8yb1 x15x8yb2 x15x8yb3 x15x8yb4 loop
x15x9ya x15x9ya1 x15x9ya2 x15x9ya3 x15x9ya4 loop
x15x9yb x15x9yb1 x15x9yb2 x15x9yb3 x15x9yb4 loop
x15x10ya x15x10ya1 x15x10ya2 x15x10ya3 x15x10ya4 loop
x15x10yb x15x10yb1 x15x10yb2 x15x10yb3 x15x10yb4 loop
x15x11ya x15x11ya1 x15x11ya2 x15x11ya3 x15x11ya4 loop
x15x11yb x15x11yb1 x15x11yb2 x15x11yb3 x15x11yb4 loop
x15x12ya x15x12ya1 x15x12ya2 x15x12ya3 x15x12ya4 loop
x15x12yb x15x12yb1 x15x12yb2 x15x12yb3 x15x12yb4 loop
x15x13ya x15x13ya1 x15x13ya2 x15x13ya3 x15x13ya4 loop
x15x13yb x15x13yb1 x15x13yb2 x15x13yb3 x15x13yb4 loop
x15x14ya x15x14ya1 x15x14ya2 x15x14ya3 x15x14ya4 loop
x15x14yb x15x14yb1 x15x14yb2 x15x14yb3 x15x14yb4 loop
x15x15ya x15x15ya1 x15x15ya2 x15x15ya3 x15x15ya4 loop
x15x15yb x15x15yb1 x15x15yb2 x15x15yb3 x15x15yb4 loop

*Hopping connection between (1,1) and (1,1)
Cx1x1yax1x1yb0 x1x1ya1 x1x1yb3 6.999999999999999e-08
Cx1x1yax1x1yb1 x1x1ya2 x1x1yb4 6.999999999999999e-08
Cx1x1yax1x1yb2 x1x1ya3 x1x1yb1 6.999999999999999e-08
Cx1x1yax1x1yb3 x1x1ya4 x1x1yb2 6.999999999999999e-08

*Hopping connection between (1,1) and (2,1)
Cx1x1yax2x1yb0 x1x1ya1 x2x1yb1 5e-08
Cx1x1yax2x1yb1 x1x1ya2 x2x1yb2 5e-08
Cx1x1yax2x1yb2 x1x1ya3 x2x1yb3 5e-08
Cx1x1yax2x1yb3 x1x1ya4 x2x1yb4 5e-08

*Hopping connection between (1,1) and (2,1)
Cx1x1ybx2x1ya0 x1x1yb1 x2x1ya1 5e-08
Cx1x1ybx2x1ya1 x1x1yb2 x2x1ya2 5e-08
Cx1x1ybx2x1ya2 x1x1yb3 x2x1ya3 5e-08
Cx1x1ybx2x1ya3 x1x1yb4 x2x1ya4 5e-08

*Hopping connection between (1,1) and (2,1)
Cx1x1yax2x1ya0 x1x1ya1 x2x1ya2 5e-08
Cx1x1yax2x1ya1 x1x1ya2 x2x1ya3 5e-08
Cx1x1yax2x1ya2 x1x1ya3 x2x1ya4 5e-08
Cx1x1yax2x1ya3 x1x1ya4 x2x1ya1 5e-08

*Hopping connection between (1,1) and (2,1)
Cx1x1ybx2x1yb0 x1x1yb1 x2x1yb2 5e-08
Cx1x1ybx2x1yb1 x1x1yb2 x2x1yb3 5e-08
Cx1x1ybx2x1yb2 x1x1yb3 x2x1yb4 5e-08
Cx1x1ybx2x1yb3 x1x1yb4 x2x1yb1 5e-08

*Hopping connection between (1,1) and (1,2)
Cx1x1ybx1x2ya0 x1x1yb1 x1x2ya1 1e-07
Cx1x1ybx1x2ya1 x1x1yb2 x1x2ya2 1e-07
Cx1x1ybx1x2ya2 x1x1yb3 x1x2ya3 1e-07
Cx1x1ybx1x2ya3 x1x1yb4 x1x2ya4 1e-07

*Hopping connection between (2,1) and (2,1)
Cx2x1yax2x1yb0 x2x1ya1 x2x1yb3 6.999999999999999e-08
Cx2x1yax2x1yb1 x2x1ya2 x2x1yb4 6.999999999999999e-08
Cx2x1yax2x1yb2 x2x1ya3 x2x1yb1 6.999999999999999e-08
Cx2x1yax2x1yb3 x2x1ya4 x2x1yb2 6.999999999999999e-08

*Hopping connection between (2,1) and (3,1)
Cx2x1yax3x1yb0 x2x1ya1 x3x1yb1 5e-08
Cx2x1yax3x1yb1 x2x1ya2 x3x1yb2 5e-08
Cx2x1yax3x1yb2 x2x1ya3 x3x1yb3 5e-08
Cx2x1yax3x1yb3 x2x1ya4 x3x1yb4 5e-08

*Hopping connection between (2,1) and (3,1)
Cx2x1ybx3x1ya0 x2x1yb1 x3x1ya1 5e-08
Cx2x1ybx3x1ya1 x2x1yb2 x3x1ya2 5e-08
Cx2x1ybx3x1ya2 x2x1yb3 x3x1ya3 5e-08
Cx2x1ybx3x1ya3 x2x1yb4 x3x1ya4 5e-08

*Hopping connection between (2,1) and (3,1)
Cx2x1yax3x1ya0 x2x1ya1 x3x1ya2 5e-08
Cx2x1yax3x1ya1 x2x1ya2 x3x1ya3 5e-08
Cx2x1yax3x1ya2 x2x1ya3 x3x1ya4 5e-08
Cx2x1yax3x1ya3 x2x1ya4 x3x1ya1 5e-08

*Hopping connection between (2,1) and (3,1)
Cx2x1ybx3x1yb0 x2x1yb1 x3x1yb2 5e-08
Cx2x1ybx3x1yb1 x2x1yb2 x3x1yb3 5e-08
Cx2x1ybx3x1yb2 x2x1yb3 x3x1yb4 5e-08
Cx2x1ybx3x1yb3 x2x1yb4 x3x1yb1 5e-08

*Hopping connection between (2,1) and (2,2)
Cx2x1ybx2x2ya0 x2x1yb1 x2x2ya1 1e-07
Cx2x1ybx2x2ya1 x2x1yb2 x2x2ya2 1e-07
Cx2x1ybx2x2ya2 x2x1yb3 x2x2ya3 1e-07
Cx2x1ybx2x2ya3 x2x1yb4 x2x2ya4 1e-07

*Hopping connection between (3,1) and (3,1)
Cx3x1yax3x1yb0 x3x1ya1 x3x1yb3 6.999999999999999e-08
Cx3x1yax3x1yb1 x3x1ya2 x3x1yb4 6.999999999999999e-08
Cx3x1yax3x1yb2 x3x1ya3 x3x1yb1 6.999999999999999e-08
Cx3x1yax3x1yb3 x3x1ya4 x3x1yb2 6.999999999999999e-08

*Hopping connection between (3,1) and (4,1)
Cx3x1yax4x1yb0 x3x1ya1 x4x1yb1 5e-08
Cx3x1yax4x1yb1 x3x1ya2 x4x1yb2 5e-08
Cx3x1yax4x1yb2 x3x1ya3 x4x1yb3 5e-08
Cx3x1yax4x1yb3 x3x1ya4 x4x1yb4 5e-08

*Hopping connection between (3,1) and (4,1)
Cx3x1ybx4x1ya0 x3x1yb1 x4x1ya1 5e-08
Cx3x1ybx4x1ya1 x3x1yb2 x4x1ya2 5e-08
Cx3x1ybx4x1ya2 x3x1yb3 x4x1ya3 5e-08
Cx3x1ybx4x1ya3 x3x1yb4 x4x1ya4 5e-08

*Hopping connection between (3,1) and (4,1)
Cx3x1yax4x1ya0 x3x1ya1 x4x1ya2 5e-08
Cx3x1yax4x1ya1 x3x1ya2 x4x1ya3 5e-08
Cx3x1yax4x1ya2 x3x1ya3 x4x1ya4 5e-08
Cx3x1yax4x1ya3 x3x1ya4 x4x1ya1 5e-08

*Hopping connection between (3,1) and (4,1)
Cx3x1ybx4x1yb0 x3x1yb1 x4x1yb2 5e-08
Cx3x1ybx4x1yb1 x3x1yb2 x4x1yb3 5e-08
Cx3x1ybx4x1yb2 x3x1yb3 x4x1yb4 5e-08
Cx3x1ybx4x1yb3 x3x1yb4 x4x1yb1 5e-08

*Hopping connection between (3,1) and (3,2)
Cx3x1ybx3x2ya0 x3x1yb1 x3x2ya1 1e-07
Cx3x1ybx3x2ya1 x3x1yb2 x3x2ya2 1e-07
Cx3x1ybx3x2ya2 x3x1yb3 x3x2ya3 1e-07
Cx3x1ybx3x2ya3 x3x1yb4 x3x2ya4 1e-07

*Hopping connection between (4,1) and (4,1)
Cx4x1yax4x1yb0 x4x1ya1 x4x1yb3 6.999999999999999e-08
Cx4x1yax4x1yb1 x4x1ya2 x4x1yb4 6.999999999999999e-08
Cx4x1yax4x1yb2 x4x1ya3 x4x1yb1 6.999999999999999e-08
Cx4x1yax4x1yb3 x4x1ya4 x4x1yb2 6.999999999999999e-08

*Hopping connection between (4,1) and (5,1)
Cx4x1yax5x1yb0 x4x1ya1 x5x1yb1 5e-08
Cx4x1yax5x1yb1 x4x1ya2 x5x1yb2 5e-08
Cx4x1yax5x1yb2 x4x1ya3 x5x1yb3 5e-08
Cx4x1yax5x1yb3 x4x1ya4 x5x1yb4 5e-08

*Hopping connection between (4,1) and (5,1)
Cx4x1ybx5x1ya0 x4x1yb1 x5x1ya1 5e-08
Cx4x1ybx5x1ya1 x4x1yb2 x5x1ya2 5e-08
Cx4x1ybx5x1ya2 x4x1yb3 x5x1ya3 5e-08
Cx4x1ybx5x1ya3 x4x1yb4 x5x1ya4 5e-08

*Hopping connection between (4,1) and (5,1)
Cx4x1yax5x1ya0 x4x1ya1 x5x1ya2 5e-08
Cx4x1yax5x1ya1 x4x1ya2 x5x1ya3 5e-08
Cx4x1yax5x1ya2 x4x1ya3 x5x1ya4 5e-08
Cx4x1yax5x1ya3 x4x1ya4 x5x1ya1 5e-08

*Hopping connection between (4,1) and (5,1)
Cx4x1ybx5x1yb0 x4x1yb1 x5x1yb2 5e-08
Cx4x1ybx5x1yb1 x4x1yb2 x5x1yb3 5e-08
Cx4x1ybx5x1yb2 x4x1yb3 x5x1yb4 5e-08
Cx4x1ybx5x1yb3 x4x1yb4 x5x1yb1 5e-08

*Hopping connection between (4,1) and (4,2)
Cx4x1ybx4x2ya0 x4x1yb1 x4x2ya1 1e-07
Cx4x1ybx4x2ya1 x4x1yb2 x4x2ya2 1e-07
Cx4x1ybx4x2ya2 x4x1yb3 x4x2ya3 1e-07
Cx4x1ybx4x2ya3 x4x1yb4 x4x2ya4 1e-07

*Hopping connection between (5,1) and (5,1)
Cx5x1yax5x1yb0 x5x1ya1 x5x1yb3 6.999999999999999e-08
Cx5x1yax5x1yb1 x5x1ya2 x5x1yb4 6.999999999999999e-08
Cx5x1yax5x1yb2 x5x1ya3 x5x1yb1 6.999999999999999e-08
Cx5x1yax5x1yb3 x5x1ya4 x5x1yb2 6.999999999999999e-08

*Hopping connection between (5,1) and (6,1)
Cx5x1yax6x1yb0 x5x1ya1 x6x1yb1 5e-08
Cx5x1yax6x1yb1 x5x1ya2 x6x1yb2 5e-08
Cx5x1yax6x1yb2 x5x1ya3 x6x1yb3 5e-08
Cx5x1yax6x1yb3 x5x1ya4 x6x1yb4 5e-08

*Hopping connection between (5,1) and (6,1)
Cx5x1ybx6x1ya0 x5x1yb1 x6x1ya1 5e-08
Cx5x1ybx6x1ya1 x5x1yb2 x6x1ya2 5e-08
Cx5x1ybx6x1ya2 x5x1yb3 x6x1ya3 5e-08
Cx5x1ybx6x1ya3 x5x1yb4 x6x1ya4 5e-08

*Hopping connection between (5,1) and (6,1)
Cx5x1yax6x1ya0 x5x1ya1 x6x1ya2 5e-08
Cx5x1yax6x1ya1 x5x1ya2 x6x1ya3 5e-08
Cx5x1yax6x1ya2 x5x1ya3 x6x1ya4 5e-08
Cx5x1yax6x1ya3 x5x1ya4 x6x1ya1 5e-08

*Hopping connection between (5,1) and (6,1)
Cx5x1ybx6x1yb0 x5x1yb1 x6x1yb2 5e-08
Cx5x1ybx6x1yb1 x5x1yb2 x6x1yb3 5e-08
Cx5x1ybx6x1yb2 x5x1yb3 x6x1yb4 5e-08
Cx5x1ybx6x1yb3 x5x1yb4 x6x1yb1 5e-08

*Hopping connection between (5,1) and (5,2)
Cx5x1ybx5x2ya0 x5x1yb1 x5x2ya1 1e-07
Cx5x1ybx5x2ya1 x5x1yb2 x5x2ya2 1e-07
Cx5x1ybx5x2ya2 x5x1yb3 x5x2ya3 1e-07
Cx5x1ybx5x2ya3 x5x1yb4 x5x2ya4 1e-07

*Hopping connection between (6,1) and (6,1)
Cx6x1yax6x1yb0 x6x1ya1 x6x1yb3 6.999999999999999e-08
Cx6x1yax6x1yb1 x6x1ya2 x6x1yb4 6.999999999999999e-08
Cx6x1yax6x1yb2 x6x1ya3 x6x1yb1 6.999999999999999e-08
Cx6x1yax6x1yb3 x6x1ya4 x6x1yb2 6.999999999999999e-08

*Hopping connection between (6,1) and (7,1)
Cx6x1yax7x1yb0 x6x1ya1 x7x1yb1 5e-08
Cx6x1yax7x1yb1 x6x1ya2 x7x1yb2 5e-08
Cx6x1yax7x1yb2 x6x1ya3 x7x1yb3 5e-08
Cx6x1yax7x1yb3 x6x1ya4 x7x1yb4 5e-08

*Hopping connection between (6,1) and (7,1)
Cx6x1ybx7x1ya0 x6x1yb1 x7x1ya1 5e-08
Cx6x1ybx7x1ya1 x6x1yb2 x7x1ya2 5e-08
Cx6x1ybx7x1ya2 x6x1yb3 x7x1ya3 5e-08
Cx6x1ybx7x1ya3 x6x1yb4 x7x1ya4 5e-08

*Hopping connection between (6,1) and (7,1)
Cx6x1yax7x1ya0 x6x1ya1 x7x1ya2 5e-08
Cx6x1yax7x1ya1 x6x1ya2 x7x1ya3 5e-08
Cx6x1yax7x1ya2 x6x1ya3 x7x1ya4 5e-08
Cx6x1yax7x1ya3 x6x1ya4 x7x1ya1 5e-08

*Hopping connection between (6,1) and (7,1)
Cx6x1ybx7x1yb0 x6x1yb1 x7x1yb2 5e-08
Cx6x1ybx7x1yb1 x6x1yb2 x7x1yb3 5e-08
Cx6x1ybx7x1yb2 x6x1yb3 x7x1yb4 5e-08
Cx6x1ybx7x1yb3 x6x1yb4 x7x1yb1 5e-08

*Hopping connection between (6,1) and (6,2)
Cx6x1ybx6x2ya0 x6x1yb1 x6x2ya1 1e-07
Cx6x1ybx6x2ya1 x6x1yb2 x6x2ya2 1e-07
Cx6x1ybx6x2ya2 x6x1yb3 x6x2ya3 1e-07
Cx6x1ybx6x2ya3 x6x1yb4 x6x2ya4 1e-07

*Hopping connection between (7,1) and (7,1)
Cx7x1yax7x1yb0 x7x1ya1 x7x1yb3 6.999999999999999e-08
Cx7x1yax7x1yb1 x7x1ya2 x7x1yb4 6.999999999999999e-08
Cx7x1yax7x1yb2 x7x1ya3 x7x1yb1 6.999999999999999e-08
Cx7x1yax7x1yb3 x7x1ya4 x7x1yb2 6.999999999999999e-08

*Hopping connection between (7,1) and (8,1)
Cx7x1yax8x1yb0 x7x1ya1 x8x1yb1 5e-08
Cx7x1yax8x1yb1 x7x1ya2 x8x1yb2 5e-08
Cx7x1yax8x1yb2 x7x1ya3 x8x1yb3 5e-08
Cx7x1yax8x1yb3 x7x1ya4 x8x1yb4 5e-08

*Hopping connection between (7,1) and (8,1)
Cx7x1ybx8x1ya0 x7x1yb1 x8x1ya1 5e-08
Cx7x1ybx8x1ya1 x7x1yb2 x8x1ya2 5e-08
Cx7x1ybx8x1ya2 x7x1yb3 x8x1ya3 5e-08
Cx7x1ybx8x1ya3 x7x1yb4 x8x1ya4 5e-08

*Hopping connection between (7,1) and (8,1)
Cx7x1yax8x1ya0 x7x1ya1 x8x1ya2 5e-08
Cx7x1yax8x1ya1 x7x1ya2 x8x1ya3 5e-08
Cx7x1yax8x1ya2 x7x1ya3 x8x1ya4 5e-08
Cx7x1yax8x1ya3 x7x1ya4 x8x1ya1 5e-08

*Hopping connection between (7,1) and (8,1)